                                  MODFLOW-2000
      U.S. GEOLOGICAL SURVEY MODULAR FINITE-DIFFERENCE GROUND-WATER FLOW MODEL
                           VERSION 1.15.00 08/06/2004


 This model run combines GLOBAL and LIST output into this single file.

 GLOBAL LISTING FILE: t5.lst
                         UNIT    7
#                                                                                                                                                                                                       
# Input files                                                                                                                                                                                           

 OPENING t5.dis
 FILE TYPE:DIS   UNIT    8   STATUS:OLD    
 FORMAT:FORMATTED              ACCESS:SEQUENTIAL          

 OPENING t5.bas
 FILE TYPE:BAS6   UNIT    9   STATUS:OLD    
 FORMAT:FORMATTED              ACCESS:SEQUENTIAL          

 OPENING t5.bcf
 FILE TYPE:BCF6   UNIT   10   STATUS:OLD    
 FORMAT:FORMATTED              ACCESS:SEQUENTIAL          

 OPENING t5.mnw
 FILE TYPE:MNW1   UNIT   75   STATUS:OLD    
 FORMAT:FORMATTED              ACCESS:SEQUENTIAL          

 OPENING t5.pcg
 FILE TYPE:PCG   UNIT   74   STATUS:OLD    
 FORMAT:FORMATTED              ACCESS:SEQUENTIAL          

 OPENING t5.oc
 FILE TYPE:OC   UNIT   71   STATUS:OLD    
 FORMAT:FORMATTED              ACCESS:SEQUENTIAL          

 OPENING t5.lmt
 FILE TYPE:LMT6   UNIT   66   STATUS:OLD    
 FORMAT:FORMATTED              ACCESS:SEQUENTIAL          
#                                                                                                                                                                                                       
# Binary output files                                                                                                                                                                                   

 OPENING t5.ufh
 FILE TYPE:DATA(BINARY)   UNIT   89   STATUS:REPLACE
 FORMAT:UNFORMATTED            ACCESS:TRANSPARENT         

 OPENING t5.cbc
 FILE TYPE:DATA(BINARY)   UNIT   90   STATUS:REPLACE
 FORMAT:UNFORMATTED            ACCESS:TRANSPARENT         

 THE FREE FORMAT OPTION HAS BEEN SELECTED

 DISCRETIZATION INPUT DATA READ FROM UNIT    8
    3 LAYERS       101 ROWS       101 COLUMNS
    1 STRESS PERIOD(S) IN SIMULATION
 MODEL TIME UNIT IS SECONDS
 MODEL LENGTH UNIT IS FEET
 THE GROUND-WATER TRANSPORT PROCESS IS INACTIVE

 THE OBSERVATION PROCESS IS INACTIVE
 THE SENSITIVITY PROCESS IS INACTIVE
 THE PARAMETER-ESTIMATION PROCESS IS INACTIVE

 MODE: FORWARD

  Confining bed flag for each layer:
   0   0   0

     275629  ELEMENTS OF GX ARRAY USED OUT OF     275629
      30603  ELEMENTS OF GZ ARRAY USED OUT OF      30603
      30603  ELEMENTS OF IG ARRAY USED OUT OF      30603



                               DELR
 READING ON UNIT    8 WITH FORMAT: (10F11.0)           
   2798.0       2465.0       2172.0       1914.0       1687.0    
   1486.0       1309.0       1154.0       1017.0       895.80    
   789.40       695.50       612.90       540.00       475.80    
   419.30       369.40       325.50       286.80       252.70    
   222.70       196.20       172.90       152.30       134.20    
   118.30       104.20       91.830       80.920       71.300    
   62.820       55.360       48.780       42.980       37.870    
   33.370       29.400       25.910       22.830       20.110    
   17.720       15.620       13.760       12.120       10.680    
   9.4140       8.2950       7.3090       6.4400       5.6740    
   5.0000       5.6740       6.4400       7.3090       8.2950    
   9.4140       10.680       12.120       13.760       15.620    
   17.720       20.110       22.830       25.910       29.400    
   33.370       37.870       42.980       48.780       55.360    
   62.820       71.300       80.920       91.830       104.20    
   118.30       134.20       152.30       172.90       196.20    
   222.70       252.70       286.80       325.50       369.40    
   419.30       475.80       540.00       612.90       695.50    
   789.40       895.80       1017.0       1154.0       1309.0    
   1486.0       1687.0       1914.0       2172.0       2465.0    
   2798.0    



                               DELC
 READING ON UNIT    8 WITH FORMAT: (10F11.0)           
   2798.0       2465.0       2172.0       1914.0       1687.0    
   1486.0       1309.0       1154.0       1017.0       895.80    
   789.40       695.50       612.90       540.00       475.80    
   419.30       369.40       325.50       286.80       252.70    
   222.70       196.20       172.90       152.30       134.20    
   118.30       104.20       91.830       80.920       71.300    
   62.820       55.360       48.780       42.980       37.870    
   33.370       29.400       25.910       22.830       20.110    
   17.720       15.620       13.760       12.120       10.680    
   9.4140       8.2950       7.3090       6.4400       5.6740    
   5.0000       5.6740       6.4400       7.3090       8.2950    
   9.4140       10.680       12.120       13.760       15.620    
   17.720       20.110       22.830       25.910       29.400    
   33.370       37.870       42.980       48.780       55.360    
   62.820       71.300       80.920       91.830       104.20    
   118.30       134.20       152.30       172.90       196.20    
   222.70       252.70       286.80       325.50       369.40    
   419.30       475.80       540.00       612.90       695.50    
   789.40       895.80       1017.0       1154.0       1309.0    
   1486.0       1687.0       1914.0       2172.0       2465.0    
   2798.0    

 TOP ELEVATION OF LAYER 1 =   220.000    

   MODEL LAYER BOTTOM EL. =   120.000     FOR LAYER   1

   MODEL LAYER BOTTOM EL. =   100.000     FOR LAYER   2

   MODEL LAYER BOTTOM EL. =   0.00000     FOR LAYER   3


 STRESS PERIOD     LENGTH       TIME STEPS     MULTIPLIER FOR DELT    SS FLAG
 ----------------------------------------------------------------------------
        1        8.6400000E+07    100                    1.100         TR

 TRANSIENT SIMULATION




 PCG2 -- CONJUGATE GRADIENT SOLUTION PACKAGE, VERSION 2.4, 12/29/98
 # MXITER, ITER1, NPCOND
 MAXIMUM OF   1000 CALLS OF SOLUTION ROUTINE
 MAXIMUM OF     10 INTERNAL ITERATIONS PER CALL TO SOLUTION ROUTINE
 MATRIX PRECONDITIONING TYPE :    1
      81206 ELEMENTS IN X ARRAY ARE USED BY PCG
      70000 ELEMENTS IN IX ARRAY ARE USED BY PCG
     122412 ELEMENTS IN Z ARRAY ARE USED BY PCG

      81206  ELEMENTS OF X ARRAY USED OUT OF      81206
     122412  ELEMENTS OF Z ARRAY USED OUT OF     122412
      70000  ELEMENTS OF IX ARRAY USED OUT OF      70000
          0  ELEMENTS OF XHS ARRAY USED OUT OF          1



                                    SOLUTION BY THE CONJUGATE-GRADIENT METHOD
                                   -------------------------------------------
                    MAXIMUM NUMBER OF CALLS TO PCG ROUTINE =     1000
                        MAXIMUM ITERATIONS PER CALL TO PCG =       10
                               MATRIX PRECONDITIONING TYPE =        1
        RELAXATION FACTOR (ONLY USED WITH PRECOND. TYPE 1) =    0.10000E+01
 PARAMETER OF POLYNOMIAL PRECOND. = 2 (2) OR IS CALCULATED :        2
                         HEAD CHANGE CRITERION FOR CLOSURE =    0.10000E-02
                     RESIDUAL CHANGE CRITERION FOR CLOSURE =    0.10000E+00
            PCG HEAD AND RESIDUAL CHANGE PRINTOUT INTERVAL =        1
     PRINTING FROM SOLVER IS LIMITED(1) OR SUPPRESSED (>1) =        1
                                         DAMPING PARAMETER =    0.10000E+01
 
 # MNW1 Package benchmarking - Transient 4                                       
 THE FREE FORMAT OPTION HAS BEEN SELECTED
    3 LAYERS       101 ROWS       101 COLUMNS
    1 STRESS PERIOD(S) IN SIMULATION

 BAS6 -- BASIC PACKAGE, VERSION 6, 1/11/2000 INPUT READ FROM UNIT    9
         15 ELEMENTS IN IR ARRAY ARE USED BY BAS

 BCF6 -- BLOCK-CENTERED FLOW PACKAGE, VERSION 6, 1/11/2000
         INPUT READ FROM UNIT 10
 TRANSIENT SIMULATION
 HEAD AT CELLS THAT CONVERT TO DRY=  0.10000E+31
 WETTING CAPABILITY IS NOT ACTIVE
      LAYER  LAYER-TYPE CODE     INTERBLOCK T
      --------------------------------------------
         1            0          0 -- HARMONIC    
         2            0          0 -- HARMONIC    
         3            0          0 -- HARMONIC    
      30606 ELEMENTS IN RX ARRAY ARE USED BY BCF

 MNW1 -- MULTI-NODE WELL PACKAGE, VERSION 1, 8/13/2002.
    INPUT READ FROM UNIT  75
 MAXIMUM OF    2 WELLS
 CELL-BY-CELL FLOWS WILL BE PRINTED WHEN ICBCFL NOT 0
  The heads at the beginning of SP:   1 will be the default reference elevations.

 Flow rates will not be estimated after the9999th iteration

  A WEL1   data input file will be written to t.wl1 on unit   91                

  A BYNODE data input file will be written to t.ByNode on unit   92             

  A QSUM   data input file will be written to t.Qsum on unit   93               
  30603 ELEMENTS IN X ARRAY ARE USED FOR MNW1

      61260  ELEMENTS OF RX ARRAY USED OUT OF      61260
         15  ELEMENTS OF IR ARRAY USED OUT OF         15
1
 # MNW1 Package benchmarking - Transient 4                                       
                                                                                 



                     BOUNDARY ARRAY FOR LAYER   1
 READING ON UNIT    9 WITH FORMAT: (20I3)              

           BOUNDARY ARRAY =              0 FOR LAYER   2



                     BOUNDARY ARRAY FOR LAYER   3
 READING ON UNIT    9 WITH FORMAT: (20I3)              

 AQUIFER HEAD WILL BE SET TO  999.00     AT ALL NO-FLOW NODES (IBOUND=0).

             INITIAL HEAD =   30.0000     FOR LAYER   1

             INITIAL HEAD =   20.0000     FOR LAYER   2

             INITIAL HEAD =   10.0000     FOR LAYER   3

 OUTPUT CONTROL IS SPECIFIED EVERY TIME STEP
 HEAD PRINT FORMAT CODE IS   0    DRAWDOWN PRINT FORMAT CODE IS   0
 HEADS WILL BE SAVED ON UNIT   89    DRAWDOWNS WILL BE SAVED ON UNIT    0

 COLUMN TO ROW ANISOTROPY =   1.00000    

     PRIMARY STORAGE COEF =  1.000000E-04 FOR LAYER   1

     TRANSMIS. ALONG ROWS =  4.630000E-02 FOR LAYER   1

 VERT HYD COND /THICKNESS =   0.00000     FOR LAYER   1

     PRIMARY STORAGE COEF =  1.000000E-04 FOR LAYER   2

     TRANSMIS. ALONG ROWS =   0.00000     FOR LAYER   2

 VERT HYD COND /THICKNESS =   0.00000     FOR LAYER   2

     PRIMARY STORAGE COEF =  1.000000E-04 FOR LAYER   3

     TRANSMIS. ALONG ROWS =  1.157000E-02 FOR LAYER   3
1
                            STRESS PERIOD NO.    1, LENGTH =  0.8640000E+08
                            -----------------------------------------------

                              NUMBER OF TIME STEPS =   100

                               MULTIPLIER FOR DELT =     1.100

                            INITIAL TIME STEP SIZE =   627.0118    
0              2 MNW WELLS
    No.   Lay   Row   Col    Stress   QW param      Rw       Skin    WL Limit    WL Refer   NonLinear Cp  QW Group  Cell-To-Well  Min-Qoff  Min-Qon  Site Identifier 
      1     1    51    51  0.000      0.000     0.5000      0.000      0.000      100.0      0.00000             1 0.425903         0.000     0.000  Well-1                          
      2     3    51    51  0.000      0.000     0.5000      0.000      0.000      100.0      0.00000             1 0.106430         0.000     0.000  Well-1                          
 
 SOLVING FOR HEAD 


     6 CALLS TO PCG ROUTINE FOR TIME STEP   1 IN STRESS PERIOD    1
    42 TOTAL ITERATIONS

 HEAD/DRAWDOWN PRINTOUT FLAG = 1     TOTAL BUDGET PRINTOUT FLAG = 0
 CELL-BY-CELL FLOW TERM FLAG = 1

 OUTPUT FLAGS FOR ALL LAYERS ARE THE SAME:
   HEAD    DRAWDOWN  HEAD  DRAWDOWN
 PRINTOUT  PRINTOUT  SAVE    SAVE
 ----------------------------------
     0         0       1       0

              MNW PERIOD =    1  STEP =    1
  Entry LAY ROW COL         Q      H-Well       H-Cell       DD           QW-Avg      s-LINEAR   s-NonLINEAR
      1   1  51  51 -.176050      25.6652      26.0785     -74.3348      0.00000     0.413371      0.00000    
      2   3  51  51 0.176050      25.6652      24.0110     -74.3348      0.00000     -1.65419      0.00000    

      Multi-Node Rates & Average QW 
 Site Identifier      ENTRY: Begin - End  Q-Total       H-Well       DD           QW-Avg
Well-1                          1     2 -.447035E-07  25.6652     -74.3348      0.00000    
 
 UBUDSV SAVING "             MNW" ON UNIT 90 AT TIME STEP  1, STRESS PERIOD    1


 ***Link-MT3DMS Package***
 OPENING LINK-MT3DMS OUTPUT FILE: t5.ftl                                                                                                                                                                                                  
 ON UNIT NUMBER:   333
 FILE TYPE: UNFORMATTED
 HEADER OPTION: EXTENDED
 ***Link-MT3DMS Package***


 SAVING SATURATED THICKNESS AND FLOW TERMS ON UNIT  333 FOR MT3DMS
 BY THE LINK-MT3DMS PACKAGE V6.2 AT TIME STEP    1, STRESS PERIOD    1


 HEAD WILL BE SAVED ON UNIT   89 AT END OF TIME STEP   1, STRESS PERIOD    1
 
 SOLVING FOR HEAD 
     4 CALLS TO PCG ROUTINE FOR TIME STEP   2 IN STRESS PERIOD    1
    27 TOTAL ITERATIONS

 HEAD/DRAWDOWN PRINTOUT FLAG = 0     TOTAL BUDGET PRINTOUT FLAG = 1
 CELL-BY-CELL FLOW TERM FLAG = 0
 REUSING PREVIOUS VALUES OF IOFLG

 SAVING SATURATED THICKNESS AND FLOW TERMS ON UNIT  333 FOR MT3DMS
 BY THE LINK-MT3DMS PACKAGE V6.2 AT TIME STEP    2, STRESS PERIOD    1

1
  VOLUMETRIC BUDGET FOR ENTIRE MODEL AT END OF TIME STEP  2 IN STRESS PERIOD   1
  ------------------------------------------------------------------------------

     CUMULATIVE VOLUMES      L**3       RATES FOR THIS TIME STEP      L**3/T
     ------------------                 ------------------------

           IN:                                      IN:
           ---                                      ---
             STORAGE =         222.3188               STORAGE =           0.1623
       CONSTANT HEAD =       6.2838E-04         CONSTANT HEAD =       6.2713E-07
                 MNW =         222.3913                   MNW =           0.1624

            TOTAL IN =         444.7108              TOTAL IN =           0.3247

          OUT:                                     OUT:
          ----                                     ----
             STORAGE =         222.3047               STORAGE =           0.1622
       CONSTANT HEAD =       3.3681E-03         CONSTANT HEAD =       2.0193E-06
                 MNW =         222.3911                   MNW =           0.1624

           TOTAL OUT =         444.6992             TOTAL OUT =           0.3246

            IN - OUT =       1.1588E-02              IN - OUT =       1.3439E-04

 PERCENT DISCREPANCY =           0.00     PERCENT DISCREPANCY =           0.04






          TIME SUMMARY AT END OF TIME STEP   2 IN STRESS PERIOD    1
                    SECONDS     MINUTES      HOURS       DAYS        YEARS
                    -----------------------------------------------------------
   TIME STEP LENGTH  689.71      11.495     0.19159     7.98279E-03 2.18557E-05
 STRESS PERIOD TIME  1316.7      21.945     0.36576     1.52399E-02 4.17245E-05
         TOTAL TIME  1316.7      21.945     0.36576     1.52399E-02 4.17245E-05
1
 
 SOLVING FOR HEAD 
     4 CALLS TO PCG ROUTINE FOR TIME STEP   3 IN STRESS PERIOD    1
    25 TOTAL ITERATIONS

 HEAD/DRAWDOWN PRINTOUT FLAG = 0     TOTAL BUDGET PRINTOUT FLAG = 1
 CELL-BY-CELL FLOW TERM FLAG = 0
 REUSING PREVIOUS VALUES OF IOFLG

 SAVING SATURATED THICKNESS AND FLOW TERMS ON UNIT  333 FOR MT3DMS
 BY THE LINK-MT3DMS PACKAGE V6.2 AT TIME STEP    3, STRESS PERIOD    1

1
  VOLUMETRIC BUDGET FOR ENTIRE MODEL AT END OF TIME STEP  3 IN STRESS PERIOD   1
  ------------------------------------------------------------------------------

     CUMULATIVE VOLUMES      L**3       RATES FOR THIS TIME STEP      L**3/T
     ------------------                 ------------------------

           IN:                                      IN:
           ---                                      ---
             STORAGE =         340.8539               STORAGE =           0.1562
       CONSTANT HEAD =       8.3992E-04         CONSTANT HEAD =       2.7882E-07
                 MNW =         340.8609                   MNW =           0.1562

            TOTAL IN =         681.7156              TOTAL IN =           0.3124

          OUT:                                     OUT:
          ----                                     ----
             STORAGE =         340.6978               STORAGE =           0.1561
       CONSTANT HEAD =       5.3463E-03         CONSTANT HEAD =       2.6075E-06
                 MNW =         340.8601                   MNW =           0.1562

           TOTAL OUT =         681.5632             TOTAL OUT =           0.3122

            IN - OUT =           0.1524              IN - OUT =       1.8560E-04

 PERCENT DISCREPANCY =           0.02     PERCENT DISCREPANCY =           0.06






          TIME SUMMARY AT END OF TIME STEP   3 IN STRESS PERIOD    1
                    SECONDS     MINUTES      HOURS       DAYS        YEARS
                    -----------------------------------------------------------
   TIME STEP LENGTH  758.68      12.645     0.21075     8.78107E-03 2.40413E-05
 STRESS PERIOD TIME  2075.4      34.590     0.57650     2.40209E-02 6.57658E-05
         TOTAL TIME  2075.4      34.590     0.57650     2.40209E-02 6.57658E-05
1
 
 SOLVING FOR HEAD 
     4 CALLS TO PCG ROUTINE FOR TIME STEP   4 IN STRESS PERIOD    1
    22 TOTAL ITERATIONS

 HEAD/DRAWDOWN PRINTOUT FLAG = 0     TOTAL BUDGET PRINTOUT FLAG = 1
 CELL-BY-CELL FLOW TERM FLAG = 0
 REUSING PREVIOUS VALUES OF IOFLG

 SAVING SATURATED THICKNESS AND FLOW TERMS ON UNIT  333 FOR MT3DMS
 BY THE LINK-MT3DMS PACKAGE V6.2 AT TIME STEP    4, STRESS PERIOD    1

1
  VOLUMETRIC BUDGET FOR ENTIRE MODEL AT END OF TIME STEP  4 IN STRESS PERIOD   1
  ------------------------------------------------------------------------------

     CUMULATIVE VOLUMES      L**3       RATES FOR THIS TIME STEP      L**3/T
     ------------------                 ------------------------

           IN:                                      IN:
           ---                                      ---
             STORAGE =         467.9394               STORAGE =           0.1523
       CONSTANT HEAD =       1.0970E-03         CONSTANT HEAD =       3.0808E-07
                 MNW =         467.8376                   MNW =           0.1521

            TOTAL IN =         935.7780              TOTAL IN =           0.3044

          OUT:                                     OUT:
          ----                                     ----
             STORAGE =         467.6517               STORAGE =           0.1521
       CONSTANT HEAD =       7.4086E-03         CONSTANT HEAD =       2.4711E-06
                 MNW =         467.8369                   MNW =           0.1521

           TOTAL OUT =         935.4960             TOTAL OUT =           0.3043

            IN - OUT =           0.2821              IN - OUT =       1.5534E-04

 PERCENT DISCREPANCY =           0.03     PERCENT DISCREPANCY =           0.05






          TIME SUMMARY AT END OF TIME STEP   4 IN STRESS PERIOD    1
                    SECONDS     MINUTES      HOURS       DAYS        YEARS
                    -----------------------------------------------------------
   TIME STEP LENGTH  834.55      13.909     0.23182     9.65918E-03 2.64454E-05
 STRESS PERIOD TIME  2910.0      48.499     0.80832     3.36801E-02 9.22111E-05
         TOTAL TIME  2910.0      48.499     0.80832     3.36801E-02 9.22111E-05
1
 
 SOLVING FOR HEAD 
     4 CALLS TO PCG ROUTINE FOR TIME STEP   5 IN STRESS PERIOD    1
    20 TOTAL ITERATIONS

 HEAD/DRAWDOWN PRINTOUT FLAG = 0     TOTAL BUDGET PRINTOUT FLAG = 1
 CELL-BY-CELL FLOW TERM FLAG = 0
 REUSING PREVIOUS VALUES OF IOFLG

 SAVING SATURATED THICKNESS AND FLOW TERMS ON UNIT  333 FOR MT3DMS
 BY THE LINK-MT3DMS PACKAGE V6.2 AT TIME STEP    5, STRESS PERIOD    1

1
  VOLUMETRIC BUDGET FOR ENTIRE MODEL AT END OF TIME STEP  5 IN STRESS PERIOD   1
  ------------------------------------------------------------------------------

     CUMULATIVE VOLUMES      L**3       RATES FOR THIS TIME STEP      L**3/T
     ------------------                 ------------------------

           IN:                                      IN:
           ---                                      ---
             STORAGE =         604.9969               STORAGE =           0.1493
       CONSTANT HEAD =       1.3035E-03         CONSTANT HEAD =       2.2495E-07
                 MNW =         604.7838                   MNW =           0.1492

            TOTAL IN =        1209.7820              TOTAL IN =           0.2985

          OUT:                                     OUT:
          ----                                     ----
             STORAGE =         604.5951               STORAGE =           0.1492
       CONSTANT HEAD =       9.3166E-03         CONSTANT HEAD =       2.0784E-06
                 MNW =         604.7838                   MNW =           0.1492

           TOTAL OUT =        1209.3882             TOTAL OUT =           0.2984

            IN - OUT =           0.3938              IN - OUT =       1.2174E-04

 PERCENT DISCREPANCY =           0.03     PERCENT DISCREPANCY =           0.04






          TIME SUMMARY AT END OF TIME STEP   5 IN STRESS PERIOD    1
                    SECONDS     MINUTES      HOURS       DAYS        YEARS
                    -----------------------------------------------------------
   TIME STEP LENGTH  918.01      15.300     0.25500     1.06251E-02 2.90899E-05
 STRESS PERIOD TIME  3828.0      63.800      1.0633     4.43052E-02 1.21301E-04
         TOTAL TIME  3828.0      63.800      1.0633     4.43052E-02 1.21301E-04
1
 
 SOLVING FOR HEAD 
     4 CALLS TO PCG ROUTINE FOR TIME STEP   6 IN STRESS PERIOD    1
    20 TOTAL ITERATIONS

 HEAD/DRAWDOWN PRINTOUT FLAG = 0     TOTAL BUDGET PRINTOUT FLAG = 1
 CELL-BY-CELL FLOW TERM FLAG = 0
 REUSING PREVIOUS VALUES OF IOFLG

 SAVING SATURATED THICKNESS AND FLOW TERMS ON UNIT  333 FOR MT3DMS
 BY THE LINK-MT3DMS PACKAGE V6.2 AT TIME STEP    6, STRESS PERIOD    1

1
  VOLUMETRIC BUDGET FOR ENTIRE MODEL AT END OF TIME STEP  6 IN STRESS PERIOD   1
  ------------------------------------------------------------------------------

     CUMULATIVE VOLUMES      L**3       RATES FOR THIS TIME STEP      L**3/T
     ------------------                 ------------------------

           IN:                                      IN:
           ---                                      ---
             STORAGE =         753.3334               STORAGE =           0.1469
       CONSTANT HEAD =       1.6781E-03         CONSTANT HEAD =       3.7088E-07
                 MNW =         753.0151                   MNW =           0.1468

            TOTAL IN =        1506.3501              TOTAL IN =           0.2937

          OUT:                                     OUT:
          ----                                     ----
             STORAGE =         752.8345               STORAGE =           0.1468
       CONSTANT HEAD =       1.0498E-02         CONSTANT HEAD =       1.1696E-06
                 MNW =         753.0158                   MNW =           0.1468

           TOTAL OUT =        1505.8608             TOTAL OUT =           0.2936

            IN - OUT =           0.4893              IN - OUT =       9.4464E-05

 PERCENT DISCREPANCY =           0.03     PERCENT DISCREPANCY =           0.03






          TIME SUMMARY AT END OF TIME STEP   6 IN STRESS PERIOD    1
                    SECONDS     MINUTES      HOURS       DAYS        YEARS
                    -----------------------------------------------------------
   TIME STEP LENGTH  1009.8      16.830     0.28050     1.16876E-02 3.19989E-05
 STRESS PERIOD TIME  4837.8      80.630      1.3438     5.59928E-02 1.53300E-04
         TOTAL TIME  4837.8      80.630      1.3438     5.59928E-02 1.53300E-04
1
 
 SOLVING FOR HEAD 
     4 CALLS TO PCG ROUTINE FOR TIME STEP   7 IN STRESS PERIOD    1
    20 TOTAL ITERATIONS

 HEAD/DRAWDOWN PRINTOUT FLAG = 0     TOTAL BUDGET PRINTOUT FLAG = 1
 CELL-BY-CELL FLOW TERM FLAG = 0
 REUSING PREVIOUS VALUES OF IOFLG

 SAVING SATURATED THICKNESS AND FLOW TERMS ON UNIT  333 FOR MT3DMS
 BY THE LINK-MT3DMS PACKAGE V6.2 AT TIME STEP    7, STRESS PERIOD    1

1
  VOLUMETRIC BUDGET FOR ENTIRE MODEL AT END OF TIME STEP  7 IN STRESS PERIOD   1
  ------------------------------------------------------------------------------

     CUMULATIVE VOLUMES      L**3       RATES FOR THIS TIME STEP      L**3/T
     ------------------                 ------------------------

           IN:                                      IN:
           ---                                      ---
             STORAGE =         914.2486               STORAGE =           0.1449
       CONSTANT HEAD =       2.2676E-03         CONSTANT HEAD =       5.3077E-07
                 MNW =         913.8368                   MNW =           0.1448

            TOTAL IN =        1828.0876              TOTAL IN =           0.2896

          OUT:                                     OUT:
          ----                                     ----
             STORAGE =         913.6628               STORAGE =           0.1448
       CONSTANT HEAD =       1.1833E-02         CONSTANT HEAD =       1.2024E-06
                 MNW =         913.8367                   MNW =           0.1448

           TOTAL OUT =        1827.5114             TOTAL OUT =           0.2896

            IN - OUT =           0.5763              IN - OUT =       7.8334E-05

 PERCENT DISCREPANCY =           0.03     PERCENT DISCREPANCY =           0.03






          TIME SUMMARY AT END OF TIME STEP   7 IN STRESS PERIOD    1
                    SECONDS     MINUTES      HOURS       DAYS        YEARS
                    -----------------------------------------------------------
   TIME STEP LENGTH  1110.8      18.513     0.30855     1.28564E-02 3.51988E-05
 STRESS PERIOD TIME  5948.6      99.143      1.6524     6.88492E-02 1.88499E-04
         TOTAL TIME  5948.6      99.143      1.6524     6.88492E-02 1.88499E-04
1
 
 SOLVING FOR HEAD 
     4 CALLS TO PCG ROUTINE FOR TIME STEP   8 IN STRESS PERIOD    1
    20 TOTAL ITERATIONS

 HEAD/DRAWDOWN PRINTOUT FLAG = 0     TOTAL BUDGET PRINTOUT FLAG = 1
 CELL-BY-CELL FLOW TERM FLAG = 0
 REUSING PREVIOUS VALUES OF IOFLG

 SAVING SATURATED THICKNESS AND FLOW TERMS ON UNIT  333 FOR MT3DMS
 BY THE LINK-MT3DMS PACKAGE V6.2 AT TIME STEP    8, STRESS PERIOD    1

1
  VOLUMETRIC BUDGET FOR ENTIRE MODEL AT END OF TIME STEP  8 IN STRESS PERIOD   1
  ------------------------------------------------------------------------------

     CUMULATIVE VOLUMES      L**3       RATES FOR THIS TIME STEP      L**3/T
     ------------------                 ------------------------

           IN:                                      IN:
           ---                                      ---
             STORAGE =        1089.1160               STORAGE =           0.1431
       CONSTANT HEAD =       2.5161E-03         CONSTANT HEAD =       2.0336E-07
                 MNW =        1088.6042                   MNW =           0.1430

            TOTAL IN =        2177.7227              TOTAL IN =           0.2861

          OUT:                                     OUT:
          ----                                     ----
             STORAGE =        1088.4489               STORAGE =           0.1430
       CONSTANT HEAD =       1.5394E-02         CONSTANT HEAD =       2.9141E-06
                 MNW =        1088.6029                   MNW =           0.1430

           TOTAL OUT =        2177.0671             TOTAL OUT =           0.2861

            IN - OUT =           0.6556              IN - OUT =       6.4881E-05

 PERCENT DISCREPANCY =           0.03     PERCENT DISCREPANCY =           0.02






          TIME SUMMARY AT END OF TIME STEP   8 IN STRESS PERIOD    1
                    SECONDS     MINUTES      HOURS       DAYS        YEARS
                    -----------------------------------------------------------
   TIME STEP LENGTH  1221.9      20.364     0.33941     1.41420E-02 3.87187E-05
 STRESS PERIOD TIME  7170.4      119.51      1.9918     8.29912E-02 2.27217E-04
         TOTAL TIME  7170.4      119.51      1.9918     8.29912E-02 2.27217E-04
1
 
 SOLVING FOR HEAD 
     4 CALLS TO PCG ROUTINE FOR TIME STEP   9 IN STRESS PERIOD    1
    17 TOTAL ITERATIONS

 HEAD/DRAWDOWN PRINTOUT FLAG = 0     TOTAL BUDGET PRINTOUT FLAG = 1
 CELL-BY-CELL FLOW TERM FLAG = 0
 REUSING PREVIOUS VALUES OF IOFLG

 SAVING SATURATED THICKNESS AND FLOW TERMS ON UNIT  333 FOR MT3DMS
 BY THE LINK-MT3DMS PACKAGE V6.2 AT TIME STEP    9, STRESS PERIOD    1

1
  VOLUMETRIC BUDGET FOR ENTIRE MODEL AT END OF TIME STEP  9 IN STRESS PERIOD   1
  ------------------------------------------------------------------------------

     CUMULATIVE VOLUMES      L**3       RATES FOR THIS TIME STEP      L**3/T
     ------------------                 ------------------------

           IN:                                      IN:
           ---                                      ---
             STORAGE =        1279.4524               STORAGE =           0.1416
       CONSTANT HEAD =       3.1686E-03         CONSTANT HEAD =       4.8545E-07
                 MNW =        1278.7262                   MNW =           0.1415

            TOTAL IN =        2558.1816              TOTAL IN =           0.2831

          OUT:                                     OUT:
          ----                                     ----
             STORAGE =        1278.6569               STORAGE =           0.1415
       CONSTANT HEAD =       1.9630E-02         CONSTANT HEAD =       3.1517E-06
                 MNW =        1278.7255                   MNW =           0.1415

           TOTAL OUT =        2557.4019             TOTAL OUT =           0.2830

            IN - OUT =           0.7798              IN - OUT =       9.2463E-05

 PERCENT DISCREPANCY =           0.03     PERCENT DISCREPANCY =           0.03






          TIME SUMMARY AT END OF TIME STEP   9 IN STRESS PERIOD    1
                    SECONDS     MINUTES      HOURS       DAYS        YEARS
                    -----------------------------------------------------------
   TIME STEP LENGTH  1344.1      22.401     0.37335     1.55562E-02 4.25906E-05
 STRESS PERIOD TIME  8514.5      141.91      2.3651     9.85474E-02 2.69808E-04
         TOTAL TIME  8514.5      141.91      2.3651     9.85474E-02 2.69808E-04
1
 
 SOLVING FOR HEAD 
     4 CALLS TO PCG ROUTINE FOR TIME STEP  10 IN STRESS PERIOD    1
    17 TOTAL ITERATIONS

 HEAD/DRAWDOWN PRINTOUT FLAG = 0     TOTAL BUDGET PRINTOUT FLAG = 1
 CELL-BY-CELL FLOW TERM FLAG = 0
 REUSING PREVIOUS VALUES OF IOFLG

 SAVING SATURATED THICKNESS AND FLOW TERMS ON UNIT  333 FOR MT3DMS
 BY THE LINK-MT3DMS PACKAGE V6.2 AT TIME STEP   10, STRESS PERIOD    1

1
  VOLUMETRIC BUDGET FOR ENTIRE MODEL AT END OF TIME STEP 10 IN STRESS PERIOD   1
  ------------------------------------------------------------------------------

     CUMULATIVE VOLUMES      L**3       RATES FOR THIS TIME STEP      L**3/T
     ------------------                 ------------------------

           IN:                                      IN:
           ---                                      ---
             STORAGE =        1486.7391               STORAGE =           0.1402
       CONSTANT HEAD =       3.7199E-03         CONSTANT HEAD =       3.7291E-07
                 MNW =        1485.7759                   MNW =           0.1400

            TOTAL IN =        2972.5188              TOTAL IN =           0.2802

          OUT:                                     OUT:
          ----                                     ----
             STORAGE =        1485.8000               STORAGE =           0.1401
       CONSTANT HEAD =       2.3243E-02         CONSTANT HEAD =       2.4440E-06
                 MNW =        1485.7744                   MNW =           0.1400

           TOTAL OUT =        2971.5977             TOTAL OUT =           0.2802

            IN - OUT =           0.9210              IN - OUT =       9.5606E-05

 PERCENT DISCREPANCY =           0.03     PERCENT DISCREPANCY =           0.03






          TIME SUMMARY AT END OF TIME STEP  10 IN STRESS PERIOD    1
                    SECONDS     MINUTES      HOURS       DAYS        YEARS
                    -----------------------------------------------------------
   TIME STEP LENGTH  1478.5      24.641     0.41068     1.71118E-02 4.68496E-05
 STRESS PERIOD TIME  9993.0      166.55      2.7758     0.11566     3.16658E-04
         TOTAL TIME  9993.0      166.55      2.7758     0.11566     3.16658E-04
1
 
 SOLVING FOR HEAD 
     4 CALLS TO PCG ROUTINE FOR TIME STEP  11 IN STRESS PERIOD    1
    17 TOTAL ITERATIONS

 HEAD/DRAWDOWN PRINTOUT FLAG = 0     TOTAL BUDGET PRINTOUT FLAG = 1
 CELL-BY-CELL FLOW TERM FLAG = 0
 REUSING PREVIOUS VALUES OF IOFLG

 SAVING SATURATED THICKNESS AND FLOW TERMS ON UNIT  333 FOR MT3DMS
 BY THE LINK-MT3DMS PACKAGE V6.2 AT TIME STEP   11, STRESS PERIOD    1

1
  VOLUMETRIC BUDGET FOR ENTIRE MODEL AT END OF TIME STEP 11 IN STRESS PERIOD   1
  ------------------------------------------------------------------------------

     CUMULATIVE VOLUMES      L**3       RATES FOR THIS TIME STEP      L**3/T
     ------------------                 ------------------------

           IN:                                      IN:
           ---                                      ---
             STORAGE =        1712.6147               STORAGE =           0.1389
       CONSTANT HEAD =       5.0617E-03         CONSTANT HEAD =       8.2505E-07
                 MNW =        1711.4252                   MNW =           0.1387

            TOTAL IN =        3424.0449              TOTAL IN =           0.2776

          OUT:                                     OUT:
          ----                                     ----
             STORAGE =        1711.5470               STORAGE =           0.1388
       CONSTANT HEAD =       2.6013E-02         CONSTANT HEAD =       1.7032E-06
                 MNW =        1711.4237                   MNW =           0.1387

           TOTAL OUT =        3422.9968             TOTAL OUT =           0.2776

            IN - OUT =           1.0483              IN - OUT =       7.8262E-05

 PERCENT DISCREPANCY =           0.03     PERCENT DISCREPANCY =           0.03






          TIME SUMMARY AT END OF TIME STEP  11 IN STRESS PERIOD    1
                    SECONDS     MINUTES      HOURS       DAYS        YEARS
                    -----------------------------------------------------------
   TIME STEP LENGTH  1626.3      27.105     0.45175     1.88230E-02 5.15346E-05
 STRESS PERIOD TIME  11619.      193.65      3.2276     0.13448     3.68192E-04
         TOTAL TIME  11619.      193.65      3.2276     0.13448     3.68192E-04
1
 
 SOLVING FOR HEAD 
     3 CALLS TO PCG ROUTINE FOR TIME STEP  12 IN STRESS PERIOD    1
    15 TOTAL ITERATIONS

 HEAD/DRAWDOWN PRINTOUT FLAG = 0     TOTAL BUDGET PRINTOUT FLAG = 1
 CELL-BY-CELL FLOW TERM FLAG = 0
 REUSING PREVIOUS VALUES OF IOFLG

 SAVING SATURATED THICKNESS AND FLOW TERMS ON UNIT  333 FOR MT3DMS
 BY THE LINK-MT3DMS PACKAGE V6.2 AT TIME STEP   12, STRESS PERIOD    1

1
  VOLUMETRIC BUDGET FOR ENTIRE MODEL AT END OF TIME STEP 12 IN STRESS PERIOD   1
  ------------------------------------------------------------------------------

     CUMULATIVE VOLUMES      L**3       RATES FOR THIS TIME STEP      L**3/T
     ------------------                 ------------------------

           IN:                                      IN:
           ---                                      ---
             STORAGE =        1959.0059               STORAGE =           0.1377
       CONSTANT HEAD =       6.1484E-03         CONSTANT HEAD =       6.0748E-07
                 MNW =        1957.4757                   MNW =           0.1375

            TOTAL IN =        3916.4878              TOTAL IN =           0.2753

          OUT:                                     OUT:
          ----                                     ----
             STORAGE =        1957.7554               STORAGE =           0.1376
       CONSTANT HEAD =       2.9799E-02         CONSTANT HEAD =       2.1161E-06
                 MNW =        1957.4740                   MNW =           0.1375

           TOTAL OUT =        3915.2593             TOTAL OUT =           0.2752

            IN - OUT =           1.2285              IN - OUT =       1.0077E-04

 PERCENT DISCREPANCY =           0.03     PERCENT DISCREPANCY =           0.04






          TIME SUMMARY AT END OF TIME STEP  12 IN STRESS PERIOD    1
                    SECONDS     MINUTES      HOURS       DAYS        YEARS
                    -----------------------------------------------------------
   TIME STEP LENGTH  1788.9      29.816     0.49693     2.07053E-02 5.66880E-05
 STRESS PERIOD TIME  13408.      223.47      3.7245     0.15519     4.24880E-04
         TOTAL TIME  13408.      223.47      3.7245     0.15519     4.24880E-04
1
 
 SOLVING FOR HEAD 
     3 CALLS TO PCG ROUTINE FOR TIME STEP  13 IN STRESS PERIOD    1
    15 TOTAL ITERATIONS

 HEAD/DRAWDOWN PRINTOUT FLAG = 0     TOTAL BUDGET PRINTOUT FLAG = 1
 CELL-BY-CELL FLOW TERM FLAG = 0
 REUSING PREVIOUS VALUES OF IOFLG

 SAVING SATURATED THICKNESS AND FLOW TERMS ON UNIT  333 FOR MT3DMS
 BY THE LINK-MT3DMS PACKAGE V6.2 AT TIME STEP   13, STRESS PERIOD    1

1
  VOLUMETRIC BUDGET FOR ENTIRE MODEL AT END OF TIME STEP 13 IN STRESS PERIOD   1
  ------------------------------------------------------------------------------

     CUMULATIVE VOLUMES      L**3       RATES FOR THIS TIME STEP      L**3/T
     ------------------                 ------------------------

           IN:                                      IN:
           ---                                      ---
             STORAGE =        2227.7886               STORAGE =           0.1366
       CONSTANT HEAD =       8.5067E-03         CONSTANT HEAD =       1.1984E-06
                 MNW =        2225.9148                   MNW =           0.1364

            TOTAL IN =        4453.7119              TOTAL IN =           0.2730

          OUT:                                     OUT:
          ----                                     ----
             STORAGE =        2226.3762               STORAGE =           0.1365
       CONSTANT HEAD =       3.3827E-02         CONSTANT HEAD =       2.0469E-06
                 MNW =        2225.9126                   MNW =           0.1364

           TOTAL OUT =        4452.3228             TOTAL OUT =           0.2729

            IN - OUT =           1.3892              IN - OUT =       8.1719E-05

 PERCENT DISCREPANCY =           0.03     PERCENT DISCREPANCY =           0.03






          TIME SUMMARY AT END OF TIME STEP  13 IN STRESS PERIOD    1
                    SECONDS     MINUTES      HOURS       DAYS        YEARS
                    -----------------------------------------------------------
   TIME STEP LENGTH  1967.8      32.797     0.54662     2.27758E-02 6.23569E-05
 STRESS PERIOD TIME  15376.      256.27      4.2711     0.17796     4.87237E-04
         TOTAL TIME  15376.      256.27      4.2711     0.17796     4.87237E-04
1
 
 SOLVING FOR HEAD 
     3 CALLS TO PCG ROUTINE FOR TIME STEP  14 IN STRESS PERIOD    1
    16 TOTAL ITERATIONS

 HEAD/DRAWDOWN PRINTOUT FLAG = 0     TOTAL BUDGET PRINTOUT FLAG = 1
 CELL-BY-CELL FLOW TERM FLAG = 0
 REUSING PREVIOUS VALUES OF IOFLG

 SAVING SATURATED THICKNESS AND FLOW TERMS ON UNIT  333 FOR MT3DMS
 BY THE LINK-MT3DMS PACKAGE V6.2 AT TIME STEP   14, STRESS PERIOD    1

1
  VOLUMETRIC BUDGET FOR ENTIRE MODEL AT END OF TIME STEP 14 IN STRESS PERIOD   1
  ------------------------------------------------------------------------------

     CUMULATIVE VOLUMES      L**3       RATES FOR THIS TIME STEP      L**3/T
     ------------------                 ------------------------

           IN:                                      IN:
           ---                                      ---
             STORAGE =        2521.1472               STORAGE =           0.1355
       CONSTANT HEAD =       1.6876E-02         CONSTANT HEAD =       3.8664E-06
                 MNW =        2518.8960                   MNW =           0.1354

            TOTAL IN =        5040.0601              TOTAL IN =           0.2709

          OUT:                                     OUT:
          ----                                     ----
             STORAGE =        2519.5312               STORAGE =           0.1354
       CONSTANT HEAD =       3.5424E-02         CONSTANT HEAD =       7.3794E-07
                 MNW =        2518.8955                   MNW =           0.1354

           TOTAL OUT =        5038.4624             TOTAL OUT =           0.2708

            IN - OUT =           1.5979              IN - OUT =       9.6469E-05

 PERCENT DISCREPANCY =           0.03     PERCENT DISCREPANCY =           0.04






          TIME SUMMARY AT END OF TIME STEP  14 IN STRESS PERIOD    1
                    SECONDS     MINUTES      HOURS       DAYS        YEARS
                    -----------------------------------------------------------
   TIME STEP LENGTH  2164.6      36.077     0.60128     2.50534E-02 6.85925E-05
 STRESS PERIOD TIME  17541.      292.34      4.8724     0.20302     5.55830E-04
         TOTAL TIME  17541.      292.34      4.8724     0.20302     5.55830E-04
1
 
 SOLVING FOR HEAD 
     3 CALLS TO PCG ROUTINE FOR TIME STEP  15 IN STRESS PERIOD    1
    16 TOTAL ITERATIONS

 HEAD/DRAWDOWN PRINTOUT FLAG = 0     TOTAL BUDGET PRINTOUT FLAG = 1
 CELL-BY-CELL FLOW TERM FLAG = 0
 REUSING PREVIOUS VALUES OF IOFLG

 SAVING SATURATED THICKNESS AND FLOW TERMS ON UNIT  333 FOR MT3DMS
 BY THE LINK-MT3DMS PACKAGE V6.2 AT TIME STEP   15, STRESS PERIOD    1

1
  VOLUMETRIC BUDGET FOR ENTIRE MODEL AT END OF TIME STEP 15 IN STRESS PERIOD   1
  ------------------------------------------------------------------------------

     CUMULATIVE VOLUMES      L**3       RATES FOR THIS TIME STEP      L**3/T
     ------------------                 ------------------------

           IN:                                      IN:
           ---                                      ---
             STORAGE =        2841.4004               STORAGE =           0.1345
       CONSTANT HEAD =       4.0590E-02         CONSTANT HEAD =       9.9594E-06
                 MNW =        2838.7729                   MNW =           0.1343

            TOTAL IN =        5680.2139              TOTAL IN =           0.2689

          OUT:                                     OUT:
          ----                                     ----
             STORAGE =        2839.6006               STORAGE =           0.1344
       CONSTANT HEAD =       3.5753E-02         CONSTANT HEAD =       1.3801E-07
                 MNW =        2838.7727                   MNW =           0.1343

           TOTAL OUT =        5678.4092             TOTAL OUT =           0.2688

            IN - OUT =           1.8049              IN - OUT =       8.6875E-05

 PERCENT DISCREPANCY =           0.03     PERCENT DISCREPANCY =           0.03






          TIME SUMMARY AT END OF TIME STEP  15 IN STRESS PERIOD    1
                    SECONDS     MINUTES      HOURS       DAYS        YEARS
                    -----------------------------------------------------------
   TIME STEP LENGTH  2381.1      39.685     0.66141     2.75588E-02 7.54518E-05
 STRESS PERIOD TIME  19922.      332.03      5.5338     0.23058     6.31282E-04
         TOTAL TIME  19922.      332.03      5.5338     0.23058     6.31282E-04
1
 
 SOLVING FOR HEAD 
     3 CALLS TO PCG ROUTINE FOR TIME STEP  16 IN STRESS PERIOD    1
    15 TOTAL ITERATIONS

 HEAD/DRAWDOWN PRINTOUT FLAG = 0     TOTAL BUDGET PRINTOUT FLAG = 1
 CELL-BY-CELL FLOW TERM FLAG = 0
 REUSING PREVIOUS VALUES OF IOFLG

 SAVING SATURATED THICKNESS AND FLOW TERMS ON UNIT  333 FOR MT3DMS
 BY THE LINK-MT3DMS PACKAGE V6.2 AT TIME STEP   16, STRESS PERIOD    1

1
  VOLUMETRIC BUDGET FOR ENTIRE MODEL AT END OF TIME STEP 16 IN STRESS PERIOD   1
  ------------------------------------------------------------------------------

     CUMULATIVE VOLUMES      L**3       RATES FOR THIS TIME STEP      L**3/T
     ------------------                 ------------------------

           IN:                                      IN:
           ---                                      ---
             STORAGE =        3191.1040               STORAGE =           0.1335
       CONSTANT HEAD =           0.1033         CONSTANT HEAD =       2.3958E-05
                 MNW =        3188.1145                   MNW =           0.1334

            TOTAL IN =        6379.3218              TOTAL IN =           0.2669

          OUT:                                     OUT:
          ----                                     ----
             STORAGE =        3189.1611               STORAGE =           0.1335
       CONSTANT HEAD =       3.6121E-02         CONSTANT HEAD =       1.4059E-07
                 MNW =        3188.1145                   MNW =           0.1334

           TOTAL OUT =        6377.3115             TOTAL OUT =           0.2668

            IN - OUT =           2.0101              IN - OUT =       7.8341E-05

 PERCENT DISCREPANCY =           0.03     PERCENT DISCREPANCY =           0.03






          TIME SUMMARY AT END OF TIME STEP  16 IN STRESS PERIOD    1
                    SECONDS     MINUTES      HOURS       DAYS        YEARS
                    -----------------------------------------------------------
   TIME STEP LENGTH  2619.2      43.653     0.72755     3.03146E-02 8.29970E-05
 STRESS PERIOD TIME  22541.      375.68      6.2614     0.26089     7.14279E-04
         TOTAL TIME  22541.      375.68      6.2614     0.26089     7.14279E-04
1
 
 SOLVING FOR HEAD 
     3 CALLS TO PCG ROUTINE FOR TIME STEP  17 IN STRESS PERIOD    1
    15 TOTAL ITERATIONS

 HEAD/DRAWDOWN PRINTOUT FLAG = 0     TOTAL BUDGET PRINTOUT FLAG = 1
 CELL-BY-CELL FLOW TERM FLAG = 0
 REUSING PREVIOUS VALUES OF IOFLG

 SAVING SATURATED THICKNESS AND FLOW TERMS ON UNIT  333 FOR MT3DMS
 BY THE LINK-MT3DMS PACKAGE V6.2 AT TIME STEP   17, STRESS PERIOD    1

1
  VOLUMETRIC BUDGET FOR ENTIRE MODEL AT END OF TIME STEP 17 IN STRESS PERIOD   1
  ------------------------------------------------------------------------------

     CUMULATIVE VOLUMES      L**3       RATES FOR THIS TIME STEP      L**3/T
     ------------------                 ------------------------

           IN:                                      IN:
           ---                                      ---
             STORAGE =        3573.1555               STORAGE =           0.1326
       CONSTANT HEAD =           0.2489         CONSTANT HEAD =       5.0511E-05
                 MNW =        3569.7175                   MNW =           0.1325

            TOTAL IN =        7143.1221              TOTAL IN =           0.2651

          OUT:                                     OUT:
          ----                                     ----
             STORAGE =        3571.1384               STORAGE =           0.1326
       CONSTANT HEAD =       3.6442E-02         CONSTANT HEAD =       1.1129E-07
                 MNW =        3569.7173                   MNW =           0.1325

           TOTAL OUT =        7140.8921             TOTAL OUT =           0.2650

            IN - OUT =           2.2298              IN - OUT =       7.6283E-05

 PERCENT DISCREPANCY =           0.03     PERCENT DISCREPANCY =           0.03






          TIME SUMMARY AT END OF TIME STEP  17 IN STRESS PERIOD    1
                    SECONDS     MINUTES      HOURS       DAYS        YEARS
                    -----------------------------------------------------------
   TIME STEP LENGTH  2881.1      48.018     0.80031     3.33461E-02 9.12967E-05
 STRESS PERIOD TIME  25422.      423.70      7.0617     0.29424     8.05575E-04
         TOTAL TIME  25422.      423.70      7.0617     0.29424     8.05575E-04
1
 
 SOLVING FOR HEAD 
     3 CALLS TO PCG ROUTINE FOR TIME STEP  18 IN STRESS PERIOD    1
    15 TOTAL ITERATIONS

 HEAD/DRAWDOWN PRINTOUT FLAG = 0     TOTAL BUDGET PRINTOUT FLAG = 1
 CELL-BY-CELL FLOW TERM FLAG = 0
 REUSING PREVIOUS VALUES OF IOFLG

 SAVING SATURATED THICKNESS AND FLOW TERMS ON UNIT  333 FOR MT3DMS
 BY THE LINK-MT3DMS PACKAGE V6.2 AT TIME STEP   18, STRESS PERIOD    1

1
  VOLUMETRIC BUDGET FOR ENTIRE MODEL AT END OF TIME STEP 18 IN STRESS PERIOD   1
  ------------------------------------------------------------------------------

     CUMULATIVE VOLUMES      L**3       RATES FOR THIS TIME STEP      L**3/T
     ------------------                 ------------------------

           IN:                                      IN:
           ---                                      ---
             STORAGE =        3990.3137               STORAGE =           0.1316
       CONSTANT HEAD =           0.5594         CONSTANT HEAD =       9.7972E-05
                 MNW =        3986.6802                   MNW =           0.1316

            TOTAL IN =        7977.5532              TOTAL IN =           0.2633

          OUT:                                     OUT:
          ----                                     ----
             STORAGE =        3988.3494               STORAGE =           0.1316
       CONSTANT HEAD =       3.6585E-02         CONSTANT HEAD =       4.5307E-08
                 MNW =        3986.6802                   MNW =           0.1316

           TOTAL OUT =        7975.0659             TOTAL OUT =           0.2632

            IN - OUT =           2.4871              IN - OUT =       8.1193E-05

 PERCENT DISCREPANCY =           0.03     PERCENT DISCREPANCY =           0.03






          TIME SUMMARY AT END OF TIME STEP  18 IN STRESS PERIOD    1
                    SECONDS     MINUTES      HOURS       DAYS        YEARS
                    -----------------------------------------------------------
   TIME STEP LENGTH  3169.2      52.820     0.88034     3.66807E-02 1.00426E-04
 STRESS PERIOD TIME  28591.      476.52      7.9420     0.33092     9.06002E-04
         TOTAL TIME  28591.      476.52      7.9420     0.33092     9.06002E-04
1
 
 SOLVING FOR HEAD 
     3 CALLS TO PCG ROUTINE FOR TIME STEP  19 IN STRESS PERIOD    1
    14 TOTAL ITERATIONS

 HEAD/DRAWDOWN PRINTOUT FLAG = 0     TOTAL BUDGET PRINTOUT FLAG = 1
 CELL-BY-CELL FLOW TERM FLAG = 0
 REUSING PREVIOUS VALUES OF IOFLG

 SAVING SATURATED THICKNESS AND FLOW TERMS ON UNIT  333 FOR MT3DMS
 BY THE LINK-MT3DMS PACKAGE V6.2 AT TIME STEP   19, STRESS PERIOD    1

1
  VOLUMETRIC BUDGET FOR ENTIRE MODEL AT END OF TIME STEP 19 IN STRESS PERIOD   1
  ------------------------------------------------------------------------------

     CUMULATIVE VOLUMES      L**3       RATES FOR THIS TIME STEP      L**3/T
     ------------------                 ------------------------

           IN:                                      IN:
           ---                                      ---
             STORAGE =        4445.8535               STORAGE =           0.1307
       CONSTANT HEAD =           1.1996         CONSTANT HEAD =       1.8364E-04
                 MNW =        4442.3506                   MNW =           0.1307

            TOTAL IN =        8889.4033              TOTAL IN =           0.2616

          OUT:                                     OUT:
          ----                                     ----
             STORAGE =        4444.3081               STORAGE =           0.1308
       CONSTANT HEAD =       3.6996E-02         CONSTANT HEAD =       1.1772E-07
                 MNW =        4442.3506                   MNW =           0.1307

           TOTAL OUT =        8886.6953             TOTAL OUT =           0.2615

            IN - OUT =           2.7080              IN - OUT =       6.3343E-05

 PERCENT DISCREPANCY =           0.03     PERCENT DISCREPANCY =           0.02






          TIME SUMMARY AT END OF TIME STEP  19 IN STRESS PERIOD    1
                    SECONDS     MINUTES      HOURS       DAYS        YEARS
                    -----------------------------------------------------------
   TIME STEP LENGTH  3486.1      58.102     0.96837     4.03488E-02 1.10469E-04
 STRESS PERIOD TIME  32077.      534.62      8.9104     0.37127     1.01647E-03
         TOTAL TIME  32077.      534.62      8.9104     0.37127     1.01647E-03
1
 
 SOLVING FOR HEAD 
     3 CALLS TO PCG ROUTINE FOR TIME STEP  20 IN STRESS PERIOD    1
    15 TOTAL ITERATIONS

 HEAD/DRAWDOWN PRINTOUT FLAG = 0     TOTAL BUDGET PRINTOUT FLAG = 1
 CELL-BY-CELL FLOW TERM FLAG = 0
 REUSING PREVIOUS VALUES OF IOFLG

 SAVING SATURATED THICKNESS AND FLOW TERMS ON UNIT  333 FOR MT3DMS
 BY THE LINK-MT3DMS PACKAGE V6.2 AT TIME STEP   20, STRESS PERIOD    1

1
  VOLUMETRIC BUDGET FOR ENTIRE MODEL AT END OF TIME STEP 20 IN STRESS PERIOD   1
  ------------------------------------------------------------------------------

     CUMULATIVE VOLUMES      L**3       RATES FOR THIS TIME STEP      L**3/T
     ------------------                 ------------------------

           IN:                                      IN:
           ---                                      ---
             STORAGE =        4943.1953               STORAGE =           0.1297
       CONSTANT HEAD =           2.4672         CONSTANT HEAD =       3.3058E-04
                 MNW =        4940.4082                   MNW =           0.1299

            TOTAL IN =        9886.0703              TOTAL IN =           0.2599

          OUT:                                     OUT:
          ----                                     ----
             STORAGE =        4942.6724               STORAGE =           0.1300
       CONSTANT HEAD =       3.7105E-02         CONSTANT HEAD =       2.8584E-08
                 MNW =        4940.4077                   MNW =           0.1299

           TOTAL OUT =        9883.1172             TOTAL OUT =           0.2598

            IN - OUT =           2.9536              IN - OUT =       6.4056E-05

 PERCENT DISCREPANCY =           0.03     PERCENT DISCREPANCY =           0.02






          TIME SUMMARY AT END OF TIME STEP  20 IN STRESS PERIOD    1
                    SECONDS     MINUTES      HOURS       DAYS        YEARS
                    -----------------------------------------------------------
   TIME STEP LENGTH  3834.7      63.912      1.0652     4.43837E-02 1.21516E-04
 STRESS PERIOD TIME  35912.      598.54      9.9756     0.41565     1.13799E-03
         TOTAL TIME  35912.      598.54      9.9756     0.41565     1.13799E-03
1
 
 SOLVING FOR HEAD 
     3 CALLS TO PCG ROUTINE FOR TIME STEP  21 IN STRESS PERIOD    1
    16 TOTAL ITERATIONS

 HEAD/DRAWDOWN PRINTOUT FLAG = 0     TOTAL BUDGET PRINTOUT FLAG = 1
 CELL-BY-CELL FLOW TERM FLAG = 0
 REUSING PREVIOUS VALUES OF IOFLG

 SAVING SATURATED THICKNESS AND FLOW TERMS ON UNIT  333 FOR MT3DMS
 BY THE LINK-MT3DMS PACKAGE V6.2 AT TIME STEP   21, STRESS PERIOD    1

1
  VOLUMETRIC BUDGET FOR ENTIRE MODEL AT END OF TIME STEP 21 IN STRESS PERIOD   1
  ------------------------------------------------------------------------------

     CUMULATIVE VOLUMES      L**3       RATES FOR THIS TIME STEP      L**3/T
     ------------------                 ------------------------

           IN:                                      IN:
           ---                                      ---
             STORAGE =        5485.8799               STORAGE =           0.1287
       CONSTANT HEAD =           4.8647         CONSTANT HEAD =       5.6836E-04
                 MNW =        5484.8765                   MNW =           0.1291

            TOTAL IN =       10975.6211              TOTAL IN =           0.2583

          OUT:                                     OUT:
          ----                                     ----
             STORAGE =        5487.4746               STORAGE =           0.1292
       CONSTANT HEAD =       3.7203E-02         CONSTANT HEAD =       2.3145E-08
                 MNW =        5484.8784                   MNW =           0.1291

           TOTAL OUT =       10972.3906             TOTAL OUT =           0.2582

            IN - OUT =           3.2308              IN - OUT =       6.5569E-05

 PERCENT DISCREPANCY =           0.03     PERCENT DISCREPANCY =           0.03






          TIME SUMMARY AT END OF TIME STEP  21 IN STRESS PERIOD    1
                    SECONDS     MINUTES      HOURS       DAYS        YEARS
                    -----------------------------------------------------------
   TIME STEP LENGTH  4218.2      70.304      1.1717     4.88220E-02 1.33667E-04
 STRESS PERIOD TIME  40130.      668.84      11.147     0.46447     1.27165E-03
         TOTAL TIME  40130.      668.84      11.147     0.46447     1.27165E-03
1
 
 SOLVING FOR HEAD 
     3 CALLS TO PCG ROUTINE FOR TIME STEP  22 IN STRESS PERIOD    1
    16 TOTAL ITERATIONS

 HEAD/DRAWDOWN PRINTOUT FLAG = 0     TOTAL BUDGET PRINTOUT FLAG = 1
 CELL-BY-CELL FLOW TERM FLAG = 0
 REUSING PREVIOUS VALUES OF IOFLG

 SAVING SATURATED THICKNESS AND FLOW TERMS ON UNIT  333 FOR MT3DMS
 BY THE LINK-MT3DMS PACKAGE V6.2 AT TIME STEP   22, STRESS PERIOD    1

1
  VOLUMETRIC BUDGET FOR ENTIRE MODEL AT END OF TIME STEP 22 IN STRESS PERIOD   1
  ------------------------------------------------------------------------------

     CUMULATIVE VOLUMES      L**3       RATES FOR THIS TIME STEP      L**3/T
     ------------------                 ------------------------

           IN:                                      IN:
           ---                                      ---
             STORAGE =        6077.4644               STORAGE =           0.1275
       CONSTANT HEAD =           9.2214         CONSTANT HEAD =       9.3893E-04
                 MNW =        6080.1646                   MNW =           0.1283

            TOTAL IN =       12166.8506              TOTAL IN =           0.2567

          OUT:                                     OUT:
          ----                                     ----
             STORAGE =        6083.1274               STORAGE =           0.1284
       CONSTANT HEAD =       3.7620E-02         CONSTANT HEAD =       8.9946E-08
                 MNW =        6080.1636                   MNW =           0.1283

           TOTAL OUT =       12163.3291             TOTAL OUT =           0.2567

            IN - OUT =           3.5216              IN - OUT =       6.2683E-05

 PERCENT DISCREPANCY =           0.03     PERCENT DISCREPANCY =           0.02






          TIME SUMMARY AT END OF TIME STEP  22 IN STRESS PERIOD    1
                    SECONDS     MINUTES      HOURS       DAYS        YEARS
                    -----------------------------------------------------------
   TIME STEP LENGTH  4640.0      77.334      1.2889     5.37043E-02 1.47034E-04
 STRESS PERIOD TIME  44770.      746.17      12.436     0.51818     1.41869E-03
         TOTAL TIME  44770.      746.17      12.436     0.51818     1.41869E-03
1
 
 SOLVING FOR HEAD 
     3 CALLS TO PCG ROUTINE FOR TIME STEP  23 IN STRESS PERIOD    1
    16 TOTAL ITERATIONS

 HEAD/DRAWDOWN PRINTOUT FLAG = 0     TOTAL BUDGET PRINTOUT FLAG = 1
 CELL-BY-CELL FLOW TERM FLAG = 0
 REUSING PREVIOUS VALUES OF IOFLG

 SAVING SATURATED THICKNESS AND FLOW TERMS ON UNIT  333 FOR MT3DMS
 BY THE LINK-MT3DMS PACKAGE V6.2 AT TIME STEP   23, STRESS PERIOD    1

1
  VOLUMETRIC BUDGET FOR ENTIRE MODEL AT END OF TIME STEP 23 IN STRESS PERIOD   1
  ------------------------------------------------------------------------------

     CUMULATIVE VOLUMES      L**3       RATES FOR THIS TIME STEP      L**3/T
     ------------------                 ------------------------

           IN:                                      IN:
           ---                                      ---
             STORAGE =        6721.4980               STORAGE =           0.1262
       CONSTANT HEAD =          16.8274         CONSTANT HEAD =       1.4902E-03
                 MNW =        6731.0913                   MNW =           0.1275

            TOTAL IN =       13469.4170              TOTAL IN =           0.2552

          OUT:                                     OUT:
          ----                                     ----
             STORAGE =        6734.4600               STORAGE =           0.1276
       CONSTANT HEAD =       3.8455E-02         CONSTANT HEAD =       1.6359E-07
                 MNW =        6731.0884                   MNW =           0.1275

           TOTAL OUT =       13465.5869             TOTAL OUT =           0.2551

            IN - OUT =           3.8300              IN - OUT =       6.0324E-05

 PERCENT DISCREPANCY =           0.03     PERCENT DISCREPANCY =           0.02






          TIME SUMMARY AT END OF TIME STEP  23 IN STRESS PERIOD    1
                    SECONDS     MINUTES      HOURS       DAYS        YEARS
                    -----------------------------------------------------------
   TIME STEP LENGTH  5104.1      85.068      1.4178     5.90747E-02 1.61738E-04
 STRESS PERIOD TIME  49874.      831.24      13.854     0.57725     1.58043E-03
         TOTAL TIME  49874.      831.24      13.854     0.57725     1.58043E-03
1
 
 SOLVING FOR HEAD 
     3 CALLS TO PCG ROUTINE FOR TIME STEP  24 IN STRESS PERIOD    1
    16 TOTAL ITERATIONS

 HEAD/DRAWDOWN PRINTOUT FLAG = 0     TOTAL BUDGET PRINTOUT FLAG = 1
 CELL-BY-CELL FLOW TERM FLAG = 0
 REUSING PREVIOUS VALUES OF IOFLG

 SAVING SATURATED THICKNESS AND FLOW TERMS ON UNIT  333 FOR MT3DMS
 BY THE LINK-MT3DMS PACKAGE V6.2 AT TIME STEP   24, STRESS PERIOD    1

1
  VOLUMETRIC BUDGET FOR ENTIRE MODEL AT END OF TIME STEP 24 IN STRESS PERIOD   1
  ------------------------------------------------------------------------------

     CUMULATIVE VOLUMES      L**3       RATES FOR THIS TIME STEP      L**3/T
     ------------------                 ------------------------

           IN:                                      IN:
           ---                                      ---
             STORAGE =        7421.3228               STORAGE =           0.1246
       CONSTANT HEAD =          29.6431         CONSTANT HEAD =       2.2826E-03
                 MNW =        7442.9336                   MNW =           0.1268

            TOTAL IN =       14893.8994              TOTAL IN =           0.2537

          OUT:                                     OUT:
          ----                                     ----
             STORAGE =        7446.7539               STORAGE =           0.1269
       CONSTANT HEAD =       4.0592E-02         CONSTANT HEAD =       3.8059E-07
                 MNW =        7442.9355                   MNW =           0.1268

           TOTAL OUT =       14889.7305             TOTAL OUT =           0.2537

            IN - OUT =           4.1694              IN - OUT =       6.0414E-05

 PERCENT DISCREPANCY =           0.03     PERCENT DISCREPANCY =           0.02






          TIME SUMMARY AT END OF TIME STEP  24 IN STRESS PERIOD    1
                    SECONDS     MINUTES      HOURS       DAYS        YEARS
                    -----------------------------------------------------------
   TIME STEP LENGTH  5614.5      93.574      1.5596     6.49822E-02 1.77911E-04
 STRESS PERIOD TIME  55489.      924.82      15.414     0.64223     1.75834E-03
         TOTAL TIME  55489.      924.82      15.414     0.64223     1.75834E-03
1
 
 SOLVING FOR HEAD 
     3 CALLS TO PCG ROUTINE FOR TIME STEP  25 IN STRESS PERIOD    1
    16 TOTAL ITERATIONS

 HEAD/DRAWDOWN PRINTOUT FLAG = 0     TOTAL BUDGET PRINTOUT FLAG = 1
 CELL-BY-CELL FLOW TERM FLAG = 0
 REUSING PREVIOUS VALUES OF IOFLG

 SAVING SATURATED THICKNESS AND FLOW TERMS ON UNIT  333 FOR MT3DMS
 BY THE LINK-MT3DMS PACKAGE V6.2 AT TIME STEP   25, STRESS PERIOD    1

1
  VOLUMETRIC BUDGET FOR ENTIRE MODEL AT END OF TIME STEP 25 IN STRESS PERIOD   1
  ------------------------------------------------------------------------------

     CUMULATIVE VOLUMES      L**3       RATES FOR THIS TIME STEP      L**3/T
     ------------------                 ------------------------

           IN:                                      IN:
           ---                                      ---
             STORAGE =        8179.8481               STORAGE =           0.1228
       CONSTANT HEAD =          50.5122         CONSTANT HEAD =       3.3791E-03
                 MNW =        8221.4717                   MNW =           0.1261

            TOTAL IN =       16451.8320              TOTAL IN =           0.2523

          OUT:                                     OUT:
          ----                                     ----
             STORAGE =        8225.7881               STORAGE =           0.1261
       CONSTANT HEAD =       4.5992E-02         CONSTANT HEAD =       8.7440E-07
                 MNW =        8221.4717                   MNW =           0.1261

           TOTAL OUT =       16447.3066             TOTAL OUT =           0.2522

            IN - OUT =           4.5263              IN - OUT =       5.7806E-05

 PERCENT DISCREPANCY =           0.03     PERCENT DISCREPANCY =           0.02






          TIME SUMMARY AT END OF TIME STEP  25 IN STRESS PERIOD    1
                    SECONDS     MINUTES      HOURS       DAYS        YEARS
                    -----------------------------------------------------------
   TIME STEP LENGTH  6175.9      102.93      1.7155     7.14804E-02 1.95703E-04
 STRESS PERIOD TIME  61665.      1027.7      17.129     0.71371     1.95404E-03
         TOTAL TIME  61665.      1027.7      17.129     0.71371     1.95404E-03
1
 
 SOLVING FOR HEAD 
     3 CALLS TO PCG ROUTINE FOR TIME STEP  26 IN STRESS PERIOD    1
    16 TOTAL ITERATIONS

 HEAD/DRAWDOWN PRINTOUT FLAG = 0     TOTAL BUDGET PRINTOUT FLAG = 1
 CELL-BY-CELL FLOW TERM FLAG = 0
 REUSING PREVIOUS VALUES OF IOFLG

 SAVING SATURATED THICKNESS AND FLOW TERMS ON UNIT  333 FOR MT3DMS
 BY THE LINK-MT3DMS PACKAGE V6.2 AT TIME STEP   26, STRESS PERIOD    1

1
  VOLUMETRIC BUDGET FOR ENTIRE MODEL AT END OF TIME STEP 26 IN STRESS PERIOD   1
  ------------------------------------------------------------------------------

     CUMULATIVE VOLUMES      L**3       RATES FOR THIS TIME STEP      L**3/T
     ------------------                 ------------------------

           IN:                                      IN:
           ---                                      ---
             STORAGE =        8999.4492               STORAGE =           0.1206
       CONSTANT HEAD =          83.4148         CONSTANT HEAD =       4.8433E-03
                 MNW =        9073.0322                   MNW =           0.1253

            TOTAL IN =       18155.8965              TOTAL IN =           0.2508

          OUT:                                     OUT:
          ----                                     ----
             STORAGE =        9077.8770               STORAGE =           0.1254
       CONSTANT HEAD =       5.9669E-02         CONSTANT HEAD =       2.0132E-06
                 MNW =        9073.0322                   MNW =           0.1253

           TOTAL OUT =       18150.9688             TOTAL OUT =           0.2508

            IN - OUT =           4.9274              IN - OUT =       5.8982E-05

 PERCENT DISCREPANCY =           0.03     PERCENT DISCREPANCY =           0.02






          TIME SUMMARY AT END OF TIME STEP  26 IN STRESS PERIOD    1
                    SECONDS     MINUTES      HOURS       DAYS        YEARS
                    -----------------------------------------------------------
   TIME STEP LENGTH  6793.5      113.22      1.8871     7.86284E-02 2.15273E-04
 STRESS PERIOD TIME  68458.      1141.0      19.016     0.79234     2.16931E-03
         TOTAL TIME  68458.      1141.0      19.016     0.79234     2.16931E-03
1
 
 SOLVING FOR HEAD 
     3 CALLS TO PCG ROUTINE FOR TIME STEP  27 IN STRESS PERIOD    1
    13 TOTAL ITERATIONS

 HEAD/DRAWDOWN PRINTOUT FLAG = 0     TOTAL BUDGET PRINTOUT FLAG = 1
 CELL-BY-CELL FLOW TERM FLAG = 0
 REUSING PREVIOUS VALUES OF IOFLG

 SAVING SATURATED THICKNESS AND FLOW TERMS ON UNIT  333 FOR MT3DMS
 BY THE LINK-MT3DMS PACKAGE V6.2 AT TIME STEP   27, STRESS PERIOD    1

1
  VOLUMETRIC BUDGET FOR ENTIRE MODEL AT END OF TIME STEP 27 IN STRESS PERIOD   1
  ------------------------------------------------------------------------------

     CUMULATIVE VOLUMES      L**3       RATES FOR THIS TIME STEP      L**3/T
     ------------------                 ------------------------

           IN:                                      IN:
           ---                                      ---
             STORAGE =        9881.8271               STORAGE =           0.1181
       CONSTANT HEAD =         133.7584         CONSTANT HEAD =       6.7369E-03
                 MNW =       10004.5400                   MNW =           0.1247

            TOTAL IN =       20020.1250              TOTAL IN =           0.2495

          OUT:                                     OUT:
          ----                                     ----
             STORAGE =       10009.9512               STORAGE =           0.1247
       CONSTANT HEAD =       9.3088E-02         CONSTANT HEAD =       4.4721E-06
                 MNW =       10004.5391                   MNW =           0.1247

           TOTAL OUT =       20014.5840             TOTAL OUT =           0.2494

            IN - OUT =           5.5423              IN - OUT =       8.2292E-05

 PERCENT DISCREPANCY =           0.03     PERCENT DISCREPANCY =           0.03






          TIME SUMMARY AT END OF TIME STEP  27 IN STRESS PERIOD    1
                    SECONDS     MINUTES      HOURS       DAYS        YEARS
                    -----------------------------------------------------------
   TIME STEP LENGTH  7472.8      124.55      2.0758     8.64912E-02 2.36800E-04
 STRESS PERIOD TIME  75931.      1265.5      21.092     0.87883     2.40611E-03
         TOTAL TIME  75931.      1265.5      21.092     0.87883     2.40611E-03
1
 
 SOLVING FOR HEAD 
     3 CALLS TO PCG ROUTINE FOR TIME STEP  28 IN STRESS PERIOD    1
    15 TOTAL ITERATIONS

 HEAD/DRAWDOWN PRINTOUT FLAG = 0     TOTAL BUDGET PRINTOUT FLAG = 1
 CELL-BY-CELL FLOW TERM FLAG = 0
 REUSING PREVIOUS VALUES OF IOFLG

 SAVING SATURATED THICKNESS AND FLOW TERMS ON UNIT  333 FOR MT3DMS
 BY THE LINK-MT3DMS PACKAGE V6.2 AT TIME STEP   28, STRESS PERIOD    1

1
  VOLUMETRIC BUDGET FOR ENTIRE MODEL AT END OF TIME STEP 28 IN STRESS PERIOD   1
  ------------------------------------------------------------------------------

     CUMULATIVE VOLUMES      L**3       RATES FOR THIS TIME STEP      L**3/T
     ------------------                 ------------------------

           IN:                                      IN:
           ---                                      ---
             STORAGE =       10827.0635               STORAGE =           0.1150
       CONSTANT HEAD =         208.6758         CONSTANT HEAD =       9.1139E-03
                 MNW =       11023.5820                   MNW =           0.1240

            TOTAL IN =       22059.3223              TOTAL IN =           0.2481

          OUT:                                     OUT:
          ----                                     ----
             STORAGE =       11029.5713               STORAGE =           0.1240
       CONSTANT HEAD =           0.1729         CONSTANT HEAD =       9.7104E-06
                 MNW =       11023.5801                   MNW =           0.1240

           TOTAL OUT =       22053.3242             TOTAL OUT =           0.2480

            IN - OUT =           5.9971              IN - OUT =       5.5398E-05

 PERCENT DISCREPANCY =           0.03     PERCENT DISCREPANCY =           0.02






          TIME SUMMARY AT END OF TIME STEP  28 IN STRESS PERIOD    1
                    SECONDS     MINUTES      HOURS       DAYS        YEARS
                    -----------------------------------------------------------
   TIME STEP LENGTH  8220.1      137.00      2.2834     9.51404E-02 2.60480E-04
 STRESS PERIOD TIME  84151.      1402.5      23.375     0.97397     2.66659E-03
         TOTAL TIME  84151.      1402.5      23.375     0.97397     2.66659E-03
1
 
 SOLVING FOR HEAD 
     3 CALLS TO PCG ROUTINE FOR TIME STEP  29 IN STRESS PERIOD    1
    14 TOTAL ITERATIONS

 HEAD/DRAWDOWN PRINTOUT FLAG = 0     TOTAL BUDGET PRINTOUT FLAG = 1
 CELL-BY-CELL FLOW TERM FLAG = 0
 REUSING PREVIOUS VALUES OF IOFLG

 SAVING SATURATED THICKNESS AND FLOW TERMS ON UNIT  333 FOR MT3DMS
 BY THE LINK-MT3DMS PACKAGE V6.2 AT TIME STEP   29, STRESS PERIOD    1

1
  VOLUMETRIC BUDGET FOR ENTIRE MODEL AT END OF TIME STEP 29 IN STRESS PERIOD   1
  ------------------------------------------------------------------------------

     CUMULATIVE VOLUMES      L**3       RATES FOR THIS TIME STEP      L**3/T
     ------------------                 ------------------------

           IN:                                      IN:
           ---                                      ---
             STORAGE =       11834.8984               STORAGE =           0.1115
       CONSTANT HEAD =         317.3003         CONSTANT HEAD =       1.2013E-02
                 MNW =       12138.4150                   MNW =           0.1233

            TOTAL IN =       24290.6133              TOTAL IN =           0.2468

          OUT:                                     OUT:
          ----                                     ----
             STORAGE =       12145.3223               STORAGE =           0.1234
       CONSTANT HEAD =           0.3528         CONSTANT HEAD =       1.9897E-05
                 MNW =       12138.4160                   MNW =           0.1233

           TOTAL OUT =       24284.0918             TOTAL OUT =           0.2467

            IN - OUT =           6.5227              IN - OUT =       5.8184E-05

 PERCENT DISCREPANCY =           0.03     PERCENT DISCREPANCY =           0.02






          TIME SUMMARY AT END OF TIME STEP  29 IN STRESS PERIOD    1
                    SECONDS     MINUTES      HOURS       DAYS        YEARS
                    -----------------------------------------------------------
   TIME STEP LENGTH  9042.1      150.70      2.5117     0.10465     2.86528E-04
 STRESS PERIOD TIME  93193.      1553.2      25.887      1.0786     2.95312E-03
         TOTAL TIME  93193.      1553.2      25.887      1.0786     2.95312E-03
1
 
 SOLVING FOR HEAD 
     3 CALLS TO PCG ROUTINE FOR TIME STEP  30 IN STRESS PERIOD    1
    15 TOTAL ITERATIONS

 HEAD/DRAWDOWN PRINTOUT FLAG = 0     TOTAL BUDGET PRINTOUT FLAG = 1
 CELL-BY-CELL FLOW TERM FLAG = 0
 REUSING PREVIOUS VALUES OF IOFLG

 SAVING SATURATED THICKNESS AND FLOW TERMS ON UNIT  333 FOR MT3DMS
 BY THE LINK-MT3DMS PACKAGE V6.2 AT TIME STEP   30, STRESS PERIOD    1

1
  VOLUMETRIC BUDGET FOR ENTIRE MODEL AT END OF TIME STEP 30 IN STRESS PERIOD   1
  ------------------------------------------------------------------------------

     CUMULATIVE VOLUMES      L**3       RATES FOR THIS TIME STEP      L**3/T
     ------------------                 ------------------------

           IN:                                      IN:
           ---                                      ---
             STORAGE =       12902.3467               STORAGE =           0.1073
       CONSTANT HEAD =         471.0155         CONSTANT HEAD =       1.5454E-02
                 MNW =       13358.2188                   MNW =           0.1226

            TOTAL IN =       26731.5801              TOTAL IN =           0.2454

          OUT:                                     OUT:
          ----                                     ----
             STORAGE =       13365.5547               STORAGE =           0.1227
       CONSTANT HEAD =           0.7408         CONSTANT HEAD =       3.9006E-05
                 MNW =       13358.2197                   MNW =           0.1226

           TOTAL OUT =       26724.5156             TOTAL OUT =           0.2454

            IN - OUT =           7.0657              IN - OUT =       5.4661E-05

 PERCENT DISCREPANCY =           0.03     PERCENT DISCREPANCY =           0.02






          TIME SUMMARY AT END OF TIME STEP  30 IN STRESS PERIOD    1
                    SECONDS     MINUTES      HOURS       DAYS        YEARS
                    -----------------------------------------------------------
   TIME STEP LENGTH  9946.4      165.77      2.7629     0.11512     3.15181E-04
 STRESS PERIOD TIME 1.03140E+05  1719.0      28.650      1.1937     3.26830E-03
         TOTAL TIME 1.03140E+05  1719.0      28.650      1.1937     3.26830E-03
1
 
 SOLVING FOR HEAD 
     3 CALLS TO PCG ROUTINE FOR TIME STEP  31 IN STRESS PERIOD    1
    14 TOTAL ITERATIONS

 HEAD/DRAWDOWN PRINTOUT FLAG = 0     TOTAL BUDGET PRINTOUT FLAG = 1
 CELL-BY-CELL FLOW TERM FLAG = 0
 REUSING PREVIOUS VALUES OF IOFLG

 SAVING SATURATED THICKNESS AND FLOW TERMS ON UNIT  333 FOR MT3DMS
 BY THE LINK-MT3DMS PACKAGE V6.2 AT TIME STEP   31, STRESS PERIOD    1

1
  VOLUMETRIC BUDGET FOR ENTIRE MODEL AT END OF TIME STEP 31 IN STRESS PERIOD   1
  ------------------------------------------------------------------------------

     CUMULATIVE VOLUMES      L**3       RATES FOR THIS TIME STEP      L**3/T
     ------------------                 ------------------------

           IN:                                      IN:
           ---                                      ---
             STORAGE =       14026.2646               STORAGE =           0.1027
       CONSTANT HEAD =         683.6989         CONSTANT HEAD =       1.9439E-02
[...]
 BY THE LINK-MT3DMS PACKAGE V6.2 AT TIME STEP   92, STRESS PERIOD    1

1
  VOLUMETRIC BUDGET FOR ENTIRE MODEL AT END OF TIME STEP 92 IN STRESS PERIOD   1
  ------------------------------------------------------------------------------

     CUMULATIVE VOLUMES      L**3       RATES FOR THIS TIME STEP      L**3/T
     ------------------                 ------------------------

           IN:                                      IN:
           ---                                      ---
             STORAGE =       32898.3984               STORAGE =       9.9580E-07
       CONSTANT HEAD =     4308783.5000         CONSTANT HEAD =           0.1075
                 MNW =     4341062.0000                   MNW =           0.1074

            TOTAL IN =     8682744.0000              TOTAL IN =           0.2149

          OUT:                                     OUT:
          ----                                     ----
             STORAGE =      128677.7190               STORAGE =       1.3600E-06
       CONSTANT HEAD =     4212575.0000         CONSTANT HEAD =           0.1075
                 MNW =     4341064.0000                   MNW =           0.1074

           TOTAL OUT =     8682317.0000             TOTAL OUT =           0.2149

            IN - OUT =         427.1797              IN - OUT =      -6.0341E-06

 PERCENT DISCREPANCY =           0.00     PERCENT DISCREPANCY =           0.00






          TIME SUMMARY AT END OF TIME STEP  92 IN STRESS PERIOD    1
                    SECONDS     MINUTES      HOURS       DAYS        YEARS
                    -----------------------------------------------------------
   TIME STEP LENGTH 3.66447E+06  61074.      1017.9      42.413     0.11612    
 STRESS PERIOD TIME 4.03029E+07 6.71715E+05  11195.      466.47      1.2771    
         TOTAL TIME 4.03029E+07 6.71715E+05  11195.      466.47      1.2771    
1
 
 SOLVING FOR HEAD 
     1 CALLS TO PCG ROUTINE FOR TIME STEP  93 IN STRESS PERIOD    1
     1 TOTAL ITERATIONS

 HEAD/DRAWDOWN PRINTOUT FLAG = 0     TOTAL BUDGET PRINTOUT FLAG = 1
 CELL-BY-CELL FLOW TERM FLAG = 0
 REUSING PREVIOUS VALUES OF IOFLG

 SAVING SATURATED THICKNESS AND FLOW TERMS ON UNIT  333 FOR MT3DMS
 BY THE LINK-MT3DMS PACKAGE V6.2 AT TIME STEP   93, STRESS PERIOD    1

1
  VOLUMETRIC BUDGET FOR ENTIRE MODEL AT END OF TIME STEP 93 IN STRESS PERIOD   1
  ------------------------------------------------------------------------------

     CUMULATIVE VOLUMES      L**3       RATES FOR THIS TIME STEP      L**3/T
     ------------------                 ------------------------

           IN:                                      IN:
           ---                                      ---
             STORAGE =       32900.0898               STORAGE =       4.1982E-07
       CONSTANT HEAD =     4741911.0000         CONSTANT HEAD =           0.1075
                 MNW =     4774185.0000                   MNW =           0.1075

            TOTAL IN =     9548996.0000              TOTAL IN =           0.2149

          OUT:                                     OUT:
          ----                                     ----
             STORAGE =      128679.4610               STORAGE =       4.3165E-07
       CONSTANT HEAD =     4645720.5000         CONSTANT HEAD =           0.1075
                 MNW =     4774186.0000                   MNW =           0.1075

           TOTAL OUT =     9548586.0000             TOTAL OUT =           0.2149

            IN - OUT =         410.1289              IN - OUT =      -4.3108E-06

 PERCENT DISCREPANCY =           0.00     PERCENT DISCREPANCY =           0.00






          TIME SUMMARY AT END OF TIME STEP  93 IN STRESS PERIOD    1
                    SECONDS     MINUTES      HOURS       DAYS        YEARS
                    -----------------------------------------------------------
   TIME STEP LENGTH 4.03092E+06  67182.      1119.7      46.654     0.12773    
 STRESS PERIOD TIME 4.43338E+07 7.38897E+05  12315.      513.12      1.4049    
         TOTAL TIME 4.43338E+07 7.38897E+05  12315.      513.12      1.4049    
1
 
 SOLVING FOR HEAD 
     3 CALLS TO PCG ROUTINE FOR TIME STEP  94 IN STRESS PERIOD    1
     9 TOTAL ITERATIONS

 HEAD/DRAWDOWN PRINTOUT FLAG = 0     TOTAL BUDGET PRINTOUT FLAG = 1
 CELL-BY-CELL FLOW TERM FLAG = 0
 REUSING PREVIOUS VALUES OF IOFLG

 SAVING SATURATED THICKNESS AND FLOW TERMS ON UNIT  333 FOR MT3DMS
 BY THE LINK-MT3DMS PACKAGE V6.2 AT TIME STEP   94, STRESS PERIOD    1

1
  VOLUMETRIC BUDGET FOR ENTIRE MODEL AT END OF TIME STEP 94 IN STRESS PERIOD   1
  ------------------------------------------------------------------------------

     CUMULATIVE VOLUMES      L**3       RATES FOR THIS TIME STEP      L**3/T
     ------------------                 ------------------------

           IN:                                      IN:
           ---                                      ---
             STORAGE =       32921.0742               STORAGE =       4.7325E-06
       CONSTANT HEAD =     5218208.0000         CONSTANT HEAD =           0.1074
                 MNW =     5250721.0000                   MNW =           0.1075

            TOTAL IN =    10501850.0000              TOTAL IN =           0.2149

          OUT:                                     OUT:
          ----                                     ----
             STORAGE =      128687.0230               STORAGE =       1.7054E-06
       CONSTANT HEAD =     5121955.0000         CONSTANT HEAD =           0.1074
                 MNW =     5250723.5000                   MNW =           0.1075

           TOTAL OUT =    10501366.0000             TOTAL OUT =           0.2149

            IN - OUT =         484.5508              IN - OUT =       1.6788E-05

 PERCENT DISCREPANCY =           0.00     PERCENT DISCREPANCY =           0.01






          TIME SUMMARY AT END OF TIME STEP  94 IN STRESS PERIOD    1
                    SECONDS     MINUTES      HOURS       DAYS        YEARS
                    -----------------------------------------------------------
   TIME STEP LENGTH 4.43401E+06  73900.      1231.7      51.320     0.14051    
 STRESS PERIOD TIME 4.87678E+07 8.12797E+05  13547.      564.44      1.5454    
         TOTAL TIME 4.87678E+07 8.12797E+05  13547.      564.44      1.5454    
1
 
 SOLVING FOR HEAD 
     3 CALLS TO PCG ROUTINE FOR TIME STEP  95 IN STRESS PERIOD    1
     8 TOTAL ITERATIONS

 HEAD/DRAWDOWN PRINTOUT FLAG = 0     TOTAL BUDGET PRINTOUT FLAG = 1
 CELL-BY-CELL FLOW TERM FLAG = 0
 REUSING PREVIOUS VALUES OF IOFLG

 SAVING SATURATED THICKNESS AND FLOW TERMS ON UNIT  333 FOR MT3DMS
 BY THE LINK-MT3DMS PACKAGE V6.2 AT TIME STEP   95, STRESS PERIOD    1

1
  VOLUMETRIC BUDGET FOR ENTIRE MODEL AT END OF TIME STEP 95 IN STRESS PERIOD   1
  ------------------------------------------------------------------------------

     CUMULATIVE VOLUMES      L**3       RATES FOR THIS TIME STEP      L**3/T
     ------------------                 ------------------------

           IN:                                      IN:
           ---                                      ---
             STORAGE =       32929.0977               STORAGE =       1.6452E-06
       CONSTANT HEAD =     5742157.5000         CONSTANT HEAD =           0.1074
                 MNW =     5774800.5000                   MNW =           0.1075

            TOTAL IN =    11549887.0000              TOTAL IN =           0.2149

          OUT:                                     OUT:
          ----                                     ----
             STORAGE =      128695.0550               STORAGE =       1.6472E-06
       CONSTANT HEAD =     5645889.0000         CONSTANT HEAD =           0.1074
                 MNW =     5774801.5000                   MNW =           0.1075

           TOTAL OUT =    11549386.0000             TOTAL OUT =           0.2149

            IN - OUT =         501.5430              IN - OUT =       3.4253E-06

 PERCENT DISCREPANCY =           0.00     PERCENT DISCREPANCY =           0.00






          TIME SUMMARY AT END OF TIME STEP  95 IN STRESS PERIOD    1
                    SECONDS     MINUTES      HOURS       DAYS        YEARS
                    -----------------------------------------------------------
   TIME STEP LENGTH 4.87741E+06  81290.      1354.8      56.451     0.15456    
 STRESS PERIOD TIME 5.36452E+07 8.94087E+05  14901.      620.89      1.6999    
         TOTAL TIME 5.36452E+07 8.94087E+05  14901.      620.89      1.6999    
1
 
 SOLVING FOR HEAD 
     1 CALLS TO PCG ROUTINE FOR TIME STEP  96 IN STRESS PERIOD    1
     1 TOTAL ITERATIONS

 HEAD/DRAWDOWN PRINTOUT FLAG = 0     TOTAL BUDGET PRINTOUT FLAG = 1
 CELL-BY-CELL FLOW TERM FLAG = 0
 REUSING PREVIOUS VALUES OF IOFLG

 SAVING SATURATED THICKNESS AND FLOW TERMS ON UNIT  333 FOR MT3DMS
 BY THE LINK-MT3DMS PACKAGE V6.2 AT TIME STEP   96, STRESS PERIOD    1

1
  VOLUMETRIC BUDGET FOR ENTIRE MODEL AT END OF TIME STEP 96 IN STRESS PERIOD   1
  ------------------------------------------------------------------------------

     CUMULATIVE VOLUMES      L**3       RATES FOR THIS TIME STEP      L**3/T
     ------------------                 ------------------------

           IN:                                      IN:
           ---                                      ---
             STORAGE =       32930.5000               STORAGE =       2.6125E-07
       CONSTANT HEAD =     6318531.0000         CONSTANT HEAD =           0.1074
                 MNW =     6351348.5000                   MNW =           0.1075

            TOTAL IN =    12702810.0000              TOTAL IN =           0.2149

          OUT:                                     OUT:
          ----                                     ----
             STORAGE =      128699.7190               STORAGE =       8.6942E-07
       CONSTANT HEAD =     6222245.5000         CONSTANT HEAD =           0.1074
                 MNW =     6351345.5000                   MNW =           0.1075

           TOTAL OUT =    12702291.0000             TOTAL OUT =           0.2149

            IN - OUT =         519.2812              IN - OUT =       3.3481E-06

 PERCENT DISCREPANCY =           0.00     PERCENT DISCREPANCY =           0.00






          TIME SUMMARY AT END OF TIME STEP  96 IN STRESS PERIOD    1
                    SECONDS     MINUTES      HOURS       DAYS        YEARS
                    -----------------------------------------------------------
   TIME STEP LENGTH 5.36515E+06  89419.      1490.3      62.097     0.17001    
 STRESS PERIOD TIME 5.90104E+07 9.83506E+05  16392.      682.99      1.8699    
         TOTAL TIME 5.90104E+07 9.83506E+05  16392.      682.99      1.8699    
1
 
 SOLVING FOR HEAD 
     3 CALLS TO PCG ROUTINE FOR TIME STEP  97 IN STRESS PERIOD    1
     9 TOTAL ITERATIONS

 HEAD/DRAWDOWN PRINTOUT FLAG = 0     TOTAL BUDGET PRINTOUT FLAG = 1
 CELL-BY-CELL FLOW TERM FLAG = 0
 REUSING PREVIOUS VALUES OF IOFLG

 SAVING SATURATED THICKNESS AND FLOW TERMS ON UNIT  333 FOR MT3DMS
 BY THE LINK-MT3DMS PACKAGE V6.2 AT TIME STEP   97, STRESS PERIOD    1

1
  VOLUMETRIC BUDGET FOR ENTIRE MODEL AT END OF TIME STEP 97 IN STRESS PERIOD   1
  ------------------------------------------------------------------------------

     CUMULATIVE VOLUMES      L**3       RATES FOR THIS TIME STEP      L**3/T
     ------------------                 ------------------------

           IN:                                      IN:
           ---                                      ---
             STORAGE =       32935.0430               STORAGE =       7.6982E-07
       CONSTANT HEAD =     6952540.0000         CONSTANT HEAD =           0.1074
                 MNW =     6985580.0000                   MNW =           0.1075

            TOTAL IN =    13971055.0000              TOTAL IN =           0.2149

          OUT:                                     OUT:
          ----                                     ----
             STORAGE =      128705.5620               STORAGE =       9.8965E-07
       CONSTANT HEAD =     6856182.5000         CONSTANT HEAD =           0.1074
                 MNW =     6985577.5000                   MNW =           0.1075

           TOTAL OUT =    13970466.0000             TOTAL OUT =           0.2149

            IN - OUT =         589.4805              IN - OUT =       1.2014E-05

 PERCENT DISCREPANCY =           0.00     PERCENT DISCREPANCY =           0.01






          TIME SUMMARY AT END OF TIME STEP  97 IN STRESS PERIOD    1
                    SECONDS     MINUTES      HOURS       DAYS        YEARS
                    -----------------------------------------------------------
   TIME STEP LENGTH 5.90166E+06  98361.      1639.4      68.306     0.18701    
 STRESS PERIOD TIME 6.49120E+07 1.08187E+06  18031.      751.30      2.0569    
         TOTAL TIME 6.49120E+07 1.08187E+06  18031.      751.30      2.0569    
1
 
 SOLVING FOR HEAD 
     3 CALLS TO PCG ROUTINE FOR TIME STEP  98 IN STRESS PERIOD    1
     8 TOTAL ITERATIONS

 HEAD/DRAWDOWN PRINTOUT FLAG = 0     TOTAL BUDGET PRINTOUT FLAG = 1
 CELL-BY-CELL FLOW TERM FLAG = 0
 REUSING PREVIOUS VALUES OF IOFLG

 SAVING SATURATED THICKNESS AND FLOW TERMS ON UNIT  333 FOR MT3DMS
 BY THE LINK-MT3DMS PACKAGE V6.2 AT TIME STEP   98, STRESS PERIOD    1

1
  VOLUMETRIC BUDGET FOR ENTIRE MODEL AT END OF TIME STEP 98 IN STRESS PERIOD   1
  ------------------------------------------------------------------------------

     CUMULATIVE VOLUMES      L**3       RATES FOR THIS TIME STEP      L**3/T
     ------------------                 ------------------------

           IN:                                      IN:
           ---                                      ---
             STORAGE =       32943.2109               STORAGE =       1.2581E-06
       CONSTANT HEAD =     7649919.0000         CONSTANT HEAD =           0.1074
                 MNW =     7683150.0000                   MNW =           0.1075

            TOTAL IN =    15366012.0000              TOTAL IN =           0.2149

          OUT:                                     OUT:
          ----                                     ----
             STORAGE =      128710.3280               STORAGE =       7.3397E-07
       CONSTANT HEAD =     7553539.5000         CONSTANT HEAD =           0.1074
                 MNW =     7683151.0000                   MNW =           0.1075

           TOTAL OUT =    15365401.0000             TOTAL OUT =           0.2149

            IN - OUT =         611.3828              IN - OUT =       3.4299E-06

 PERCENT DISCREPANCY =           0.00     PERCENT DISCREPANCY =           0.00






          TIME SUMMARY AT END OF TIME STEP  98 IN STRESS PERIOD    1
                    SECONDS     MINUTES      HOURS       DAYS        YEARS
                    -----------------------------------------------------------
   TIME STEP LENGTH 6.49183E+06 1.08197E+05  1803.3      75.137     0.20571    
 STRESS PERIOD TIME 7.14038E+07 1.19006E+06  19834.      826.43      2.2627    
         TOTAL TIME 7.14038E+07 1.19006E+06  19834.      826.43      2.2627    
1
 
 SOLVING FOR HEAD 
     1 CALLS TO PCG ROUTINE FOR TIME STEP  99 IN STRESS PERIOD    1
     1 TOTAL ITERATIONS

 HEAD/DRAWDOWN PRINTOUT FLAG = 0     TOTAL BUDGET PRINTOUT FLAG = 1
 CELL-BY-CELL FLOW TERM FLAG = 0
 REUSING PREVIOUS VALUES OF IOFLG

 SAVING SATURATED THICKNESS AND FLOW TERMS ON UNIT  333 FOR MT3DMS
 BY THE LINK-MT3DMS PACKAGE V6.2 AT TIME STEP   99, STRESS PERIOD    1

1
  VOLUMETRIC BUDGET FOR ENTIRE MODEL AT END OF TIME STEP 99 IN STRESS PERIOD   1
  ------------------------------------------------------------------------------

     CUMULATIVE VOLUMES      L**3       RATES FOR THIS TIME STEP      L**3/T
     ------------------                 ------------------------

           IN:                                      IN:
           ---                                      ---
             STORAGE =       32944.2656               STORAGE =       1.4775E-07
       CONSTANT HEAD =     8417074.0000         CONSTANT HEAD =           0.1074
                 MNW =     8450507.0000                   MNW =           0.1075

            TOTAL IN =    16900526.0000              TOTAL IN =           0.2149

          OUT:                                     OUT:
          ----                                     ----
             STORAGE =      128714.2340               STORAGE =       5.4748E-07
       CONSTANT HEAD =     8320672.0000         CONSTANT HEAD =           0.1074
                 MNW =     8450509.0000                   MNW =           0.1075

           TOTAL OUT =    16899896.0000             TOTAL OUT =           0.2149

            IN - OUT =         630.0312              IN - OUT =       2.5209E-06

 PERCENT DISCREPANCY =           0.00     PERCENT DISCREPANCY =           0.00






          TIME SUMMARY AT END OF TIME STEP  99 IN STRESS PERIOD    1
                    SECONDS     MINUTES      HOURS       DAYS        YEARS
                    -----------------------------------------------------------
   TIME STEP LENGTH 7.14101E+06 1.19017E+05  1983.6      82.651     0.22629    
 STRESS PERIOD TIME 7.85449E+07 1.30908E+06  21818.      909.08      2.4889    
         TOTAL TIME 7.85449E+07 1.30908E+06  21818.      909.08      2.4889    
1
 
 SOLVING FOR HEAD 
     3 CALLS TO PCG ROUTINE FOR TIME STEP 100 IN STRESS PERIOD    1
     8 TOTAL ITERATIONS

 HEAD/DRAWDOWN PRINTOUT FLAG = 0     TOTAL BUDGET PRINTOUT FLAG = 1
 CELL-BY-CELL FLOW TERM FLAG = 0
 REUSING PREVIOUS VALUES OF IOFLG

 SAVING SATURATED THICKNESS AND FLOW TERMS ON UNIT  333 FOR MT3DMS
 BY THE LINK-MT3DMS PACKAGE V6.2 AT TIME STEP  100, STRESS PERIOD    1

1
  VOLUMETRIC BUDGET FOR ENTIRE MODEL AT END OF TIME STEP100 IN STRESS PERIOD   1
  ------------------------------------------------------------------------------

     CUMULATIVE VOLUMES      L**3       RATES FOR THIS TIME STEP      L**3/T
     ------------------                 ------------------------

           IN:                                      IN:
           ---                                      ---
             STORAGE =       32946.1016               STORAGE =       2.3386E-07
       CONSTANT HEAD =     9260934.0000         CONSTANT HEAD =           0.1074
                 MNW =     9294609.0000                   MNW =           0.1075

            TOTAL IN =    18588490.0000              TOTAL IN =           0.2149

          OUT:                                     OUT:
          ----                                     ----
             STORAGE =      128715.6330               STORAGE =       1.7785E-07
       CONSTANT HEAD =     9164483.0000         CONSTANT HEAD =           0.1074
                 MNW =     9294616.0000                   MNW =           0.1075

           TOTAL OUT =    18587814.0000             TOTAL OUT =           0.2149

            IN - OUT =         674.4688              IN - OUT =       5.6738E-06

 PERCENT DISCREPANCY =           0.00     PERCENT DISCREPANCY =           0.00






          TIME SUMMARY AT END OF TIME STEP 100 IN STRESS PERIOD    1
                    SECONDS     MINUTES      HOURS       DAYS        YEARS
                    -----------------------------------------------------------
   TIME STEP LENGTH 7.85512E+06 1.30919E+05  2182.0      90.916     0.24891    
 STRESS PERIOD TIME 8.64000E+07 1.44000E+06  24000.      1000.0      2.7379    
         TOTAL TIME 8.64000E+07 1.44000E+06  24000.      1000.0      2.7379    
1
